Version 4
SHEET 1 2908 1508
WIRE 704 -160 704 -208
WIRE 944 -128 944 -192
WIRE 944 -128 896 -128
WIRE 1232 -128 1232 -192
WIRE 1232 -128 1184 -128
WIRE 1536 -128 1536 -192
WIRE 1536 -128 1488 -128
WIRE 896 -80 896 -128
WIRE 944 -80 944 -128
WIRE 1184 -80 1184 -128
WIRE 1232 -80 1232 -128
WIRE 1488 -80 1488 -128
WIRE 1536 -80 1536 -128
WIRE -16 -32 -48 -32
WIRE 272 -32 48 -32
WIRE 704 -32 704 -80
WIRE 704 -32 272 -32
WIRE -528 -16 -528 -64
WIRE -48 0 -48 -32
WIRE 896 16 896 -16
WIRE 944 16 944 -16
WIRE 944 16 896 16
WIRE 1024 16 944 16
WIRE 1184 16 1184 -16
WIRE 1232 16 1232 -16
WIRE 1232 16 1184 16
WIRE 1312 16 1232 16
WIRE 1488 16 1488 -16
WIRE 1536 16 1536 -16
WIRE 1536 16 1488 16
WIRE 1616 16 1536 16
WIRE 896 48 896 16
WIRE 944 48 944 16
WIRE 1184 48 1184 16
WIRE 1232 48 1232 16
WIRE 1488 48 1488 16
WIRE 1536 48 1536 16
WIRE 272 80 272 -32
WIRE -528 112 -528 64
WIRE 704 144 704 -32
WIRE 896 144 896 112
WIRE 944 144 944 112
WIRE 944 144 896 144
WIRE 1184 144 1184 112
WIRE 1232 144 1232 112
WIRE 1232 144 1184 144
WIRE 1488 144 1488 112
WIRE 1536 144 1536 112
WIRE 1536 144 1488 144
WIRE -752 192 -752 144
WIRE -624 192 -752 192
WIRE -512 192 -624 192
WIRE -320 192 -512 192
WIRE -192 192 -320 192
WIRE -48 192 -192 192
WIRE 176 192 16 192
WIRE 272 192 272 160
WIRE 272 192 176 192
WIRE 640 192 272 192
WIRE 944 192 944 144
WIRE 1232 192 1232 144
WIRE 1536 192 1536 144
WIRE -752 224 -752 192
WIRE -624 224 -624 192
WIRE -320 224 -320 192
WIRE 272 224 272 192
WIRE -512 256 -512 192
WIRE -192 256 -192 192
WIRE 704 272 704 240
WIRE 832 272 832 192
WIRE 832 272 704 272
WIRE 176 336 176 192
WIRE 176 336 128 336
WIRE 272 336 272 288
WIRE 432 336 272 336
WIRE 704 336 704 272
WIRE 704 336 512 336
WIRE -752 384 -752 288
WIRE -624 384 -624 304
WIRE -512 384 -512 320
WIRE -320 384 -320 304
WIRE -192 384 -192 320
WIRE 272 384 272 336
WIRE 704 384 704 336
WIRE 1328 416 1040 416
WIRE 1168 496 1168 448
WIRE 272 560 272 448
WIRE 704 560 704 464
WIRE 1040 576 1040 416
WIRE 1072 576 1040 576
WIRE 1440 576 1264 576
WIRE 832 608 832 272
WIRE 1072 608 832 608
WIRE 1328 640 1328 416
WIRE 1328 640 1264 640
WIRE 256 768 144 768
WIRE 384 784 368 784
WIRE 512 784 384 784
WIRE 1168 784 1168 720
WIRE 256 800 192 800
WIRE 672 800 624 800
WIRE 736 800 672 800
WIRE -736 816 -736 768
WIRE 512 816 480 816
WIRE 480 864 480 816
WIRE 656 864 480 864
WIRE 384 880 384 784
WIRE 384 880 224 880
WIRE 672 896 672 800
WIRE 672 896 480 896
WIRE -736 944 -736 896
WIRE 480 944 480 896
WIRE 512 944 480 944
WIRE 224 960 224 880
WIRE 256 960 224 960
WIRE 656 960 656 864
WIRE 656 960 624 960
WIRE 736 960 656 960
WIRE 512 976 368 976
WIRE 192 992 192 800
WIRE 192 992 144 992
WIRE 256 992 192 992
FLAG -528 112 0
FLAG -752 384 0
FLAG -752 144 ANT
FLAG -320 384 0
FLAG 272 560 0
FLAG 704 560 0
FLAG -624 384 0
FLAG -48 0 0
FLAG 832 192 OSC_OUT
FLAG -528 -64 COM
FLAG 704 -208 COM
FLAG 944 192 0
FLAG 944 -192 COM
FLAG 1024 16 ESD1
FLAG 1232 192 0
FLAG 1232 -192 COM
FLAG 1312 16 OSC_OUT
FLAG 128 336 ESD1
FLAG -192 384 0
FLAG 1536 192 0
FLAG 1536 -192 COM
FLAG 1616 16 OSC_DIV2
FLAG 1168 448 COM
FLAG 1168 784 COM
FLAG 1440 576 OSC_DIV2
FLAG -736 944 0
FLAG -736 768 F_REF
FLAG -512 384 0
FLAG 144 768 OSC_DIV2
FLAG 144 992 F_REF
FLAG 736 800 MIX_OUT
SYMBOL cap 256 224 R0
SYMATTR InstName C2
SYMATTR Value 120pF
SYMBOL res 256 64 R0
SYMATTR InstName R1
SYMATTR Value 330k
SYMBOL voltage -528 -32 R0
WINDOW 123 0 0 Left 2
WINDOW 39 0 0 Left 2
SYMATTR InstName V1
SYMATTR Value 3.3V
SYMBOL ind -304 208 M0
SYMATTR InstName L1
SYMATTR Value 1.5mH
SYMATTR SpiceLine Ipk=0.1 Rser=40 Rpar=9Meg Cpar=1.76pF
SYMBOL cap -736 224 M0
SYMATTR InstName Cant
SYMATTR Value {Chand}
SYMBOL cap -48 176 M90
WINDOW 0 0 32 VBottom 2
WINDOW 3 32 32 VTop 2
SYMATTR InstName C1
SYMATTR Value 4.7pF
SYMBOL npn 640 144 R0
SYMATTR InstName Q1
SYMATTR Value 2N3904
SYMBOL cap 256 384 R0
SYMATTR InstName C3
SYMATTR Value 180pF
SYMBOL res 688 368 R0
SYMATTR InstName R2
SYMATTR Value 1500
SYMBOL res -608 208 M0
SYMATTR InstName Rant
SYMATTR Value 30meg
SYMBOL cap 48 -48 R90
WINDOW 0 0 32 VBottom 2
WINDOW 3 32 32 VTop 2
SYMATTR InstName C4
SYMATTR Value 10µF
SYMBOL res 688 -176 R0
SYMATTR InstName R3
SYMATTR Value 10
SYMBOL res 528 320 R90
WINDOW 0 5 56 VBottom 2
WINDOW 3 27 56 VTop 2
SYMATTR InstName R5
SYMATTR Value 180
SYMBOL diode 912 -16 R180
WINDOW 0 24 64 Left 2
WINDOW 3 24 0 Left 2
SYMATTR InstName D3
SYMBOL diode 912 112 R180
WINDOW 0 24 64 Left 2
WINDOW 3 24 0 Left 2
SYMATTR InstName D4
SYMBOL cap 928 -80 R0
SYMATTR InstName C10
SYMATTR Value 1.5pF
SYMBOL cap 928 48 R0
SYMATTR InstName C11
SYMATTR Value 1.5pF
SYMBOL diode 1200 -16 R180
WINDOW 0 24 64 Left 2
WINDOW 3 24 0 Left 2
SYMATTR InstName D6
SYMBOL diode 1200 112 R180
WINDOW 0 24 64 Left 2
WINDOW 3 24 0 Left 2
SYMATTR InstName D7
SYMBOL cap 1216 -80 R0
SYMATTR InstName C12
SYMATTR Value 1.5pF
SYMBOL cap 1216 48 R0
SYMATTR InstName C13
SYMATTR Value 1.5pF
SYMBOL cap -176 256 M0
SYMATTR InstName C7
SYMATTR Value 1pF
SYMBOL diode 1504 -16 R180
WINDOW 0 24 64 Left 2
WINDOW 3 24 0 Left 2
SYMATTR InstName D1
SYMBOL diode 1504 112 R180
WINDOW 0 24 64 Left 2
WINDOW 3 24 0 Left 2
SYMATTR InstName D2
SYMBOL cap 1520 -80 R0
SYMATTR InstName C8
SYMATTR Value 1.5pF
SYMBOL cap 1520 48 R0
SYMATTR InstName C9
SYMATTR Value 1.5pF
SYMBOL EXTRA\\74HC\\74hc74 1168 496 R0
SYMATTR InstName U1
SYMATTR SpiceLine VCC=3.3  SPEED=1.0  TRIPDT=1e-9
SYMBOL voltage -736 800 R0
WINDOW 123 0 0 Left 2
WINDOW 39 0 0 Left 2
SYMATTR InstName V2
SYMATTR Value PULSE(0 3.3 0 0.00000001 0.00000001 0.00000045 0.00000182)
SYMBOL cap -496 256 M0
SYMATTR InstName C5
SYMATTR Value 7pF
SYMBOL Dig_Add\\74HC\\74hc00 304 912 R0
SYMATTR InstName U2
SYMATTR SpiceLine VCC=3.3  SPEED=1.0  TRIPDT=1e-9
SYMBOL Dig_Add\\74HC\\74hc00 304 720 R0
SYMATTR InstName U3
SYMATTR SpiceLine VCC=3.3  SPEED=1.0  TRIPDT=1e-9
SYMBOL Dig_Add\\74HC\\74hc00 560 736 R0
SYMATTR InstName U4
SYMATTR SpiceLine VCC=3.3  SPEED=1.0  TRIPDT=1e-9
SYMBOL Dig_Add\\74HC\\74hc00 560 896 R0
SYMATTR InstName U5
SYMATTR SpiceLine VCC=3.3  SPEED=1.0  TRIPDT=1e-9
TEXT -584 512 Left 1 !.tran 0 15m 1m\n.STEP PARAM Chand LIST 0pF 0.1pF 0.2pf 0.3pf 0.4pf 0.5pf 0.6pf 0.7pf 0.8pf 0.9pf 1.0pf 1.1pf 1.2pf 1.3pf 1.4pf 1.5pf\n.IC V(ANT)=1u\n.MEAS TRAN t_var1 V(ANT) WHEN V(ANT) = 0 rise=1\n.MEAS TRAN t_var2 V(ANT) WHEN V(ANT) = 0 rise=2\n.MEAS TRAN f_var PARAM 1/(t_var2-t_var1)
TEXT 976 -168 Left 2 ;ESD protection SP721
