Version 4
SHEET 1 3920 3748
WIRE -592 496 -592 448
WIRE -416 496 -592 496
WIRE -240 496 -416 496
WIRE -128 496 -240 496
WIRE 16 496 16 432
WIRE 16 496 -48 496
WIRE 96 496 16 496
WIRE 128 496 96 496
WIRE 240 496 208 496
WIRE 304 496 304 432
WIRE 304 496 240 496
WIRE 416 496 304 496
WIRE 480 496 416 496
WIRE 592 496 560 496
WIRE -592 544 -592 496
WIRE -416 544 -416 496
WIRE -240 560 -240 496
WIRE 320 624 320 576
WIRE 240 656 240 496
WIRE 288 656 240 656
WIRE 480 656 368 656
WIRE 592 656 560 656
WIRE 96 688 96 496
WIRE 288 688 96 688
WIRE 416 688 416 496
WIRE 416 688 368 688
WIRE -592 704 -592 608
WIRE -416 704 -416 608
WIRE -240 704 -240 640
WIRE 304 752 304 720
WIRE 320 752 320 720
WIRE 320 752 304 752
WIRE 336 752 336 720
WIRE 336 752 320 752
WIRE 320 800 320 752
WIRE -496 816 -496 768
WIRE -496 816 -592 816
WIRE -192 816 -192 768
WIRE -192 816 -304 816
WIRE -496 832 -496 816
WIRE 0 832 0 768
WIRE -304 848 -304 816
WIRE -192 848 -192 816
WIRE -496 928 -496 912
WIRE -592 944 -592 816
WIRE -304 960 -304 912
WIRE -192 960 -192 912
WIRE -192 960 -304 960
WIRE -128 960 -192 960
WIRE 0 960 0 912
WIRE 112 960 0 960
WIRE 176 960 112 960
WIRE 0 992 0 960
WIRE -304 1008 -304 960
WIRE -192 1008 -192 960
WIRE 112 1008 112 960
WIRE -592 1040 -592 1008
WIRE -496 1040 -496 1008
WIRE -304 1104 -304 1072
WIRE -192 1104 -192 1072
WIRE -192 1104 -304 1104
WIRE 0 1104 0 1056
WIRE 112 1104 112 1072
WIRE 112 1104 0 1104
WIRE -192 1152 -192 1104
WIRE 0 1152 0 1104
WIRE -480 1280 -560 1280
WIRE -368 1280 -480 1280
WIRE -224 1280 -304 1280
WIRE -64 1280 -144 1280
WIRE 16 1280 -64 1280
WIRE 80 1280 16 1280
WIRE 224 1280 160 1280
WIRE 432 1280 224 1280
WIRE -480 1312 -480 1280
WIRE 224 1312 224 1280
WIRE 16 1360 16 1280
WIRE -64 1376 -64 1280
WIRE 224 1408 224 1392
WIRE 288 1408 224 1408
WIRE -480 1424 -480 1392
WIRE 224 1424 224 1408
WIRE -480 1536 -560 1536
WIRE -368 1536 -480 1536
WIRE -224 1536 -304 1536
WIRE -64 1536 -64 1440
WIRE -64 1536 -144 1536
WIRE 16 1536 16 1440
WIRE 16 1536 -64 1536
WIRE 80 1536 16 1536
WIRE 224 1536 224 1504
WIRE 224 1536 160 1536
WIRE 432 1536 224 1536
WIRE -480 1568 -480 1536
WIRE -480 1680 -480 1648
FLAG -496 1040 0
FLAG -496 768 COM
FLAG -192 1152 0
FLAG -192 768 COM
FLAG -128 960 ESD1
FLAG -592 448 ANT
FLAG -592 704 0
FLAG -416 704 0
FLAG -240 704 0
FLAG 16 432 ESD1
FLAG 320 800 0
FLAG 320 576 COM
FLAG 592 656 OUTP
FLAG -592 1040 0
FLAG 176 960 VREF
FLAG 0 1152 0
FLAG -560 1280 OUTP
FLAG 304 432 DRIVE
FLAG 0 768 COM
FLAG 592 496 OUTN
FLAG -560 1536 OUTN
FLAG 288 1408 VREF
FLAG 432 1280 AOUTP
FLAG 432 1536 AOUTN
FLAG -480 1424 0
FLAG -480 1680 0
SYMBOL voltage -496 912 R0
WINDOW 123 0 0 Left 0
WINDOW 39 0 0 Left 0
SYMATTR InstName V1
SYMATTR Value 3.3V
SYMBOL diode -176 1072 R180
WINDOW 0 24 64 Left 2
WINDOW 3 24 0 Left 2
SYMATTR InstName D1
SYMBOL diode -176 912 R180
WINDOW 0 24 64 Left 2
WINDOW 3 24 0 Left 2
SYMATTR InstName D2
SYMBOL cap -320 1008 R0
SYMATTR InstName C7
SYMATTR Value 0.5pF
SYMBOL cap -320 848 R0
SYMATTR InstName C10
SYMATTR Value 0.5pF
SYMBOL ind -144 512 R270
WINDOW 0 32 56 VTop 2
WINDOW 3 5 56 VBottom 2
SYMATTR InstName L1
SYMATTR Value 2.4mH
SYMATTR SpiceLine Rser=85 Rpar=10Meg Cpar=1.216pF
SYMBOL cap -432 544 R0
SYMATTR InstName C_ant
SYMATTR Value 8pF
SYMBOL cap -608 544 R0
SYMATTR InstName C_hand
SYMATTR Value 0.0001pF
SYMBOL res -256 544 R0
SYMATTR InstName R_loss
SYMATTR Value 2400K
SYMBOL Comparators\\LT1711 320 672 R0
SYMATTR InstName U7
SYMBOL res 112 512 R270
WINDOW 0 32 56 VTop 2
WINDOW 3 0 56 VBottom 2
SYMATTR InstName R_sense
SYMATTR Value 12
SYMBOL res -512 816 R0
SYMATTR InstName R1
SYMATTR Value 1
SYMBOL cap -608 944 R0
SYMATTR InstName C1
SYMATTR Value 10µF
SYMBOL cap -304 1264 R90
WINDOW 0 0 32 VBottom 2
WINDOW 3 32 32 VTop 2
SYMATTR InstName C2
SYMATTR Value 200pF
SYMBOL ind -240 1296 R270
WINDOW 0 32 56 VTop 2
WINDOW 3 5 56 VBottom 2
SYMATTR InstName L2
SYMATTR Value 120µH
SYMATTR SpiceLine Rser=8
SYMBOL res -16 816 R0
SYMATTR InstName R7
SYMATTR Value 1.3K
SYMBOL cap 96 1008 R0
SYMATTR InstName C5
SYMATTR Value 0.1µF
SYMBOL res 464 512 R270
WINDOW 0 32 56 VTop 2
WINDOW 3 0 56 VBottom 2
SYMATTR InstName R2
SYMATTR Value 180
SYMBOL res 464 672 R270
WINDOW 0 32 56 VTop 2
WINDOW 3 0 56 VBottom 2
SYMATTR InstName R3
SYMATTR Value 180
SYMBOL cap -304 1520 R90
WINDOW 0 0 32 VBottom 2
WINDOW 3 32 32 VTop 2
SYMATTR InstName C6
SYMATTR Value 200pF
SYMBOL ind -240 1552 R270
WINDOW 0 32 56 VTop 2
WINDOW 3 5 56 VBottom 2
SYMATTR InstName L5
SYMATTR Value 120µH
SYMATTR SpiceLine Rser=8
SYMBOL res 208 1296 R0
SYMATTR InstName R10
SYMATTR Value 100
SYMBOL res 208 1408 R0
SYMATTR InstName R11
SYMATTR Value 100
SYMBOL cap -48 1440 R180
WINDOW 0 24 56 Left 2
WINDOW 3 24 8 Left 2
SYMATTR InstName C3
SYMATTR Value 1.5nF
SYMBOL ind 0 1344 R0
SYMATTR InstName L3
SYMATTR Value 15µH
SYMATTR SpiceLine Rser=2.5
SYMBOL res -496 1296 R0
SYMATTR InstName R5
SYMATTR Value 100
SYMBOL res -496 1552 R0
SYMATTR InstName R6
SYMATTR Value 100
SYMBOL SBORKA\\REF\\AD1580 -16 992 R0
SYMATTR InstName U1
SYMBOL res 176 1264 R90
WINDOW 0 0 56 VBottom 2
WINDOW 3 32 56 VTop 2
SYMATTR InstName R8
SYMATTR Value 100
SYMBOL res 176 1520 R90
WINDOW 0 0 56 VBottom 2
WINDOW 3 32 56 VTop 2
SYMATTR InstName R13
SYMATTR Value 100
TEXT -552 400 Left 2 !.tran 0 1.3m 0.3m 0.00001m
TEXT -552 432 Left 2 !.IC V(ANT)=1u
TEXT -184 1224 Left 2 ;Bandpass filter: F_osc/1.3,,F_osc*1.3
TEXT 32 928 Left 2 ;Reference voltage 1.25V
TEXT 328 1312 Left 2 ;Differential Sine output \n-500..+500mV
TEXT 536 576 Left 2 ;Long line
TEXT -560 360 Left 2 ;Current Sensing Theremin Oscillator on LT1711
