Version 4
SHEET 1 3920 3748
WIRE 64 -96 -304 -96
WIRE 176 -96 144 -96
WIRE 256 -96 176 -96
WIRE 480 -96 336 -96
WIRE 256 48 256 0
WIRE 432 48 256 48
WIRE 256 64 256 48
WIRE 176 112 176 -96
WIRE 224 112 176 112
WIRE 480 112 480 -96
WIRE 480 112 384 112
WIRE 560 112 480 112
WIRE 704 112 560 112
WIRE 224 144 96 144
WIRE 224 176 176 176
WIRE 480 176 384 176
WIRE 96 192 96 144
WIRE 288 256 288 224
WIRE 432 256 432 48
WIRE 432 256 288 256
WIRE 96 288 96 256
WIRE 256 288 256 224
WIRE 64 368 16 368
WIRE 176 368 176 176
WIRE 176 368 144 368
WIRE 256 368 176 368
WIRE 480 368 480 176
WIRE 480 368 336 368
WIRE 704 368 704 272
WIRE 704 368 480 368
WIRE -832 480 -832 448
WIRE -736 480 -832 480
WIRE -624 480 -736 480
WIRE -592 480 -624 480
WIRE -496 480 -528 480
WIRE -448 480 -496 480
WIRE -304 480 -304 -96
WIRE -304 480 -368 480
WIRE -160 480 -304 480
WIRE 16 480 16 368
WIRE 16 480 -80 480
WIRE 560 480 560 112
WIRE 560 480 16 480
WIRE -736 528 -736 480
WIRE -832 544 -832 480
WIRE -624 544 -624 480
WIRE -496 544 -496 480
WIRE -496 544 -624 544
WIRE 16 576 16 480
WIRE 64 576 16 576
WIRE 176 576 144 576
WIRE 256 576 176 576
WIRE 480 576 336 576
WIRE -832 688 -832 608
WIRE -736 688 -736 608
WIRE 256 720 256 672
WIRE 432 720 256 720
WIRE 256 736 256 720
WIRE 176 784 176 576
WIRE 224 784 176 784
WIRE 480 784 480 576
WIRE 480 784 384 784
WIRE 224 816 96 816
WIRE 224 848 176 848
WIRE 480 848 384 848
WIRE 96 864 96 816
WIRE -704 928 -704 880
WIRE -704 928 -832 928
WIRE 288 928 288 896
WIRE 432 928 432 720
WIRE 432 928 288 928
WIRE 96 960 96 928
WIRE 256 960 256 896
WIRE -704 976 -704 928
WIRE -304 1040 -304 480
WIRE 64 1040 -304 1040
WIRE 176 1040 176 848
WIRE 176 1040 144 1040
WIRE 256 1040 176 1040
WIRE 480 1040 480 848
WIRE 480 1040 336 1040
WIRE -832 1120 -832 928
WIRE -704 1136 -704 1056
WIRE -832 1216 -832 1184
WIRE -704 1248 -704 1216
FLAG -704 1248 0
FLAG -704 880 COM
FLAG -832 688 0
FLAG -832 448 ANT
FLAG -736 688 0
FLAG -832 1216 0
FLAG 256 288 0
FLAG 256 0 COM
FLAG 96 288 0
FLAG 256 960 0
FLAG 256 672 COM
FLAG 96 960 0
SYMBOL voltage -704 1120 R0
WINDOW 123 0 0 Left 0
WINDOW 39 0 0 Left 0
SYMATTR InstName V1
SYMATTR Value 3.3V
SYMBOL ind -464 496 R270
WINDOW 0 32 56 VTop 2
WINDOW 3 5 56 VBottom 2
SYMATTR InstName L1
SYMATTR Value 4.624mH
SYMATTR SpiceLine Rser=120 Rpar=10Meg Cpar=1.216pF
SYMBOL cap -848 544 R0
SYMATTR InstName C_ant
SYMATTR Value 8pF
SYMBOL res -752 512 R0
SYMATTR InstName R_loss
SYMATTR Value 1470K
SYMBOL res -64 464 R90
WINDOW 0 0 56 VBottom 2
WINDOW 3 32 56 VTop 2
SYMATTR InstName R_sense
SYMATTR Value 100
SYMBOL res -688 1072 R180
WINDOW 0 36 76 Left 2
WINDOW 3 36 40 Left 2
SYMATTR InstName R1
SYMATTR Value 1
SYMBOL cap -848 1120 R0
SYMATTR InstName C2
SYMATTR Value 0.1µF
SYMBOL cap -528 464 R90
WINDOW 0 0 32 VBottom 2
WINDOW 3 32 32 VTop 2
SYMATTR InstName C1
SYMATTR Value 150pF
SYMBOL Opamps\\LTC6362 288 144 R0
SYMATTR InstName U1
SYMBOL cap 80 192 R0
SYMATTR InstName C5
SYMATTR Value 0.1µF
SYMBOL res 240 -80 R270
WINDOW 0 32 56 VTop 2
WINDOW 3 0 56 VBottom 2
SYMATTR InstName R7
SYMATTR Value 4.7K
SYMBOL res 240 384 R270
WINDOW 0 32 56 VTop 2
WINDOW 3 0 56 VBottom 2
SYMATTR InstName R8
SYMATTR Value 4.7K
SYMBOL res 48 -80 R270
WINDOW 0 32 56 VTop 2
WINDOW 3 0 56 VBottom 2
SYMATTR InstName R9
SYMATTR Value 100
SYMBOL res 48 384 R270
WINDOW 0 32 56 VTop 2
WINDOW 3 0 56 VBottom 2
SYMATTR InstName R10
SYMATTR Value 100
SYMBOL Opamps\\LTC6362 288 816 R0
SYMATTR InstName U2
SYMBOL cap 80 864 R0
SYMATTR InstName C3
SYMATTR Value 0.1µF
SYMBOL res 240 592 R270
WINDOW 0 32 56 VTop 2
WINDOW 3 0 56 VBottom 2
SYMATTR InstName R2
SYMATTR Value 10K
SYMBOL res 240 1056 R270
WINDOW 0 32 56 VTop 2
WINDOW 3 0 56 VBottom 2
SYMATTR InstName R3
SYMATTR Value 10K
SYMBOL res 48 592 R270
WINDOW 0 32 56 VTop 2
WINDOW 3 0 56 VBottom 2
SYMATTR InstName R4
SYMATTR Value 4.7K
SYMBOL res 48 1056 R270
WINDOW 0 32 56 VTop 2
WINDOW 3 0 56 VBottom 2
SYMATTR InstName R5
SYMATTR Value 4.7K
SYMBOL cap 688 208 R0
SYMATTR InstName C4
SYMATTR Value 10pF
TEXT -808 336 Left 2 !.tran 0 3m 1m 0.00001m
TEXT -808 376 Left 2 !.IC V(ANT)=1u
