Version 4
SHEET 1 3920 3748
WIRE -832 480 -960 480
WIRE -736 480 -832 480
WIRE -432 480 -656 480
WIRE -304 480 -432 480
WIRE -128 480 -224 480
WIRE 48 480 -128 480
WIRE -832 560 -832 480
WIRE -1136 576 -1136 496
WIRE -960 576 -960 480
WIRE -48 592 -48 544
WIRE -128 624 -128 480
WIRE -80 624 -128 624
WIRE 112 624 0 624
WIRE -432 656 -432 480
WIRE -80 656 -432 656
WIRE 48 656 48 480
WIRE 48 656 0 656
WIRE -1136 720 -1136 656
WIRE -960 720 -960 640
WIRE -832 720 -832 640
WIRE -64 720 -64 688
WIRE -48 720 -48 688
WIRE -48 720 -64 720
WIRE -32 720 -32 688
WIRE -32 720 -48 720
WIRE -48 768 -48 720
WIRE 208 864 208 816
WIRE 1312 960 1312 912
WIRE 48 992 48 864
WIRE 208 992 208 944
WIRE 208 992 48 992
WIRE -288 1072 -288 976
WIRE -80 1072 -288 1072
WIRE 1312 1088 1312 1040
WIRE 1312 1088 1152 1088
WIRE -288 1152 -288 1072
WIRE -80 1152 -80 1072
WIRE 1312 1152 1312 1088
WIRE 1152 1168 1152 1088
WIRE -176 1200 -224 1200
WIRE -144 1200 -176 1200
WIRE 288 1216 288 1168
WIRE 224 1264 176 1264
WIRE -176 1280 -176 1200
WIRE -80 1280 -80 1248
WIRE -80 1280 -176 1280
WIRE 1152 1296 1152 1232
WIRE 1312 1296 1312 1232
WIRE -576 1312 -576 1264
WIRE -288 1344 -288 1248
WIRE 176 1344 176 1264
WIRE 176 1344 -288 1344
WIRE 288 1344 288 1312
WIRE 464 1344 464 480
WIRE 464 1344 288 1344
WIRE -288 1392 -288 1344
WIRE -80 1392 -80 1280
WIRE 288 1392 288 1344
WIRE -576 1440 -576 1392
WIRE -432 1440 -432 864
WIRE -432 1440 -576 1440
WIRE -352 1440 -432 1440
WIRE 48 1440 48 992
WIRE 48 1440 -16 1440
WIRE 176 1440 176 1344
WIRE 224 1440 176 1440
WIRE -176 1488 -288 1488
WIRE -80 1488 -176 1488
WIRE 288 1552 288 1488
WIRE -448 1616 -448 1568
WIRE -448 1728 -448 1696
WIRE -304 1728 -448 1728
WIRE -448 1760 -448 1728
WIRE -176 1760 -176 1488
WIRE -304 1808 -304 1728
WIRE -304 1808 -384 1808
WIRE -240 1808 -304 1808
WIRE -448 1904 -448 1856
WIRE -304 1904 -448 1904
WIRE -176 1904 -176 1856
WIRE -176 1904 -304 1904
WIRE -304 1968 -304 1904
FLAG -1136 720 0
FLAG -1136 496 COM
FLAG -960 720 0
FLAG -448 1568 COM
FLAG -304 1968 0
FLAG 288 1552 0
FLAG 288 1168 COM
FLAG 1312 912 COM
FLAG 1312 1296 0
FLAG 1152 1296 0
FLAG -288 976 COM
FLAG -832 720 0
FLAG -48 768 0
FLAG -48 544 COM
FLAG 112 624 OUT
FLAG -576 1264 COM
FLAG 208 816 COM
SYMBOL voltage -1136 560 R0
WINDOW 123 0 0 Left 0
WINDOW 39 0 0 Left 0
SYMATTR InstName V1
SYMATTR Value 3.3V
SYMBOL ind -752 496 R270
WINDOW 0 32 56 VTop 2
WINDOW 3 5 56 VBottom 2
SYMATTR InstName L1
SYMATTR Value 2mH
SYMATTR SpiceLine Rser=85 Rpar=10Meg Cpar=1.216pF
SYMBOL cap -976 576 R0
SYMATTR InstName C1
SYMATTR Value 8pF
SYMBOL npn -352 1392 R0
SYMATTR InstName Q1
SYMATTR Value 2N3904
SYMBOL npn -16 1392 M0
SYMATTR InstName Q2
SYMATTR Value 2N3904
SYMBOL npn -240 1760 R0
SYMATTR InstName Q3
SYMATTR Value 2N3904
SYMBOL npn -384 1760 M0
SYMATTR InstName Q4
SYMATTR Value 2N3904
SYMBOL res -464 1600 R0
SYMATTR InstName R1
SYMATTR Value 100
SYMBOL pnp -144 1248 M180
SYMATTR InstName Q5
SYMATTR Value 2N3906
SYMBOL pnp -224 1248 R180
SYMATTR InstName Q6
SYMATTR Value 2N3906
SYMBOL pnp 224 1488 M180
SYMATTR InstName Q7
SYMATTR Value 2N3906
SYMBOL npn 224 1216 R0
SYMATTR InstName Q8
SYMATTR Value 2N3904
SYMBOL res -208 464 R90
WINDOW 0 0 56 VBottom 2
WINDOW 3 32 56 VTop 2
SYMATTR InstName R6
SYMATTR Value 22
SYMBOL res 1296 944 R0
SYMATTR InstName R7
SYMATTR Value 1K
SYMBOL res 1296 1136 R0
SYMATTR InstName R8
SYMATTR Value 470
SYMBOL cap 1136 1168 R0
SYMATTR InstName C2
SYMATTR Value 0.1µF
SYMBOL res -848 544 R0
SYMATTR InstName R_loss
SYMATTR Value 2.4Meg
SYMBOL Comparators\\LT1711 -48 640 R0
SYMATTR InstName U1
SYMBOL cap -448 800 R0
SYMATTR InstName C3
SYMATTR Value 220pF
SYMBOL cap 32 800 R0
SYMATTR InstName C4
SYMATTR Value 220pF
SYMBOL res -592 1296 R0
SYMATTR InstName R2
SYMATTR Value 10K
SYMBOL res 192 848 R0
SYMATTR InstName R3
SYMATTR Value 10K
TEXT -1016 384 Left 2 !.tran 0 2.3m 0.3m 0.000001m
