Version 4
SHEET 1 3920 3748
WIRE -528 480 -528 448
WIRE -432 480 -528 480
WIRE -288 480 -352 480
WIRE -256 480 -288 480
WIRE -144 480 -176 480
WIRE 64 480 -144 480
WIRE 112 480 64 480
WIRE 224 480 192 480
WIRE 64 512 64 480
WIRE -528 544 -528 480
WIRE -704 576 -704 496
WIRE -64 608 -64 560
WIRE -144 640 -144 480
WIRE -96 640 -144 640
WIRE 64 640 64 592
WIRE 64 640 -16 640
WIRE 288 640 64 640
WIRE -288 672 -288 480
WIRE -96 672 -288 672
WIRE 224 672 224 480
WIRE 224 672 -16 672
WIRE -704 688 -704 656
WIRE -528 688 -528 608
WIRE -80 736 -80 704
WIRE -64 736 -64 704
WIRE -64 736 -80 736
WIRE -48 736 -48 704
WIRE -48 736 -64 736
WIRE -64 784 -64 736
FLAG -704 688 0
FLAG -704 496 COM
FLAG -528 688 0
FLAG -64 784 0
FLAG -64 560 COM
FLAG 288 640 OUT
FLAG -528 448 ANT
SYMBOL voltage -704 560 R0
WINDOW 123 0 0 Left 0
WINDOW 39 0 0 Left 0
SYMATTR InstName V1
SYMATTR Value 3.3V
SYMBOL ind -448 496 R270
WINDOW 0 32 56 VTop 2
WINDOW 3 5 56 VBottom 2
SYMATTR InstName L1
SYMATTR Value 2mH
SYMATTR SpiceLine Rser=85 Rpar=10Meg Cpar=1.216pF
SYMBOL cap -544 544 R0
SYMATTR InstName C1
SYMATTR Value 10pF
SYMBOL Comparators\\LT1711 -64 656 R0
SYMATTR InstName U7
SYMBOL res -272 496 R270
WINDOW 0 32 56 VTop 2
WINDOW 3 0 56 VBottom 2
SYMATTR InstName R_sense
SYMATTR Value 10
SYMBOL res 208 464 R90
WINDOW 0 0 56 VBottom 2
WINDOW 3 32 56 VTop 2
SYMATTR InstName R1
SYMATTR Value 10
SYMBOL res 80 608 R180
WINDOW 0 36 76 Left 2
WINDOW 3 36 40 Left 2
SYMATTR InstName R2
SYMATTR Value 100
TEXT -728 312 Left 2 !.tran 0 1.3m 0.3m 0.00001m
TEXT -728 352 Left 2 !.IC V(ANT)=1u
