Version 4
SHEET 1 3920 3748
WIRE 1024 240 896 240
WIRE 1120 240 1024 240
WIRE 1248 240 1200 240
WIRE 1024 320 1024 240
WIRE 896 336 896 240
WIRE -832 480 -960 480
WIRE -736 480 -832 480
WIRE -432 480 -656 480
WIRE -304 480 -432 480
WIRE -128 480 -224 480
WIRE 48 480 -128 480
WIRE 896 480 896 400
WIRE 1024 480 1024 400
WIRE -832 560 -832 480
WIRE -1136 576 -1136 496
WIRE -960 576 -960 480
WIRE -48 592 -48 544
WIRE -128 624 -128 480
WIRE -80 624 -128 624
WIRE 112 624 112 544
WIRE 112 624 0 624
WIRE 752 624 304 624
WIRE 912 624 752 624
WIRE -432 656 -432 480
WIRE -80 656 -432 656
WIRE 48 656 48 480
WIRE 48 656 0 656
WIRE 112 656 48 656
WIRE -1136 720 -1136 656
WIRE -960 720 -960 640
WIRE -832 720 -832 640
WIRE -64 720 -64 688
WIRE -48 720 -48 688
WIRE -48 720 -64 720
WIRE -32 720 -32 688
WIRE -32 720 -48 720
WIRE 752 720 752 624
WIRE 912 720 912 624
WIRE -48 768 -48 720
WIRE 400 848 304 848
WIRE 528 848 464 848
WIRE 752 848 752 784
WIRE 752 848 608 848
WIRE 912 848 912 800
WIRE 912 848 752 848
WIRE 1248 848 1248 240
WIRE 1248 848 912 848
WIRE 112 912 112 656
FLAG -1136 720 0
FLAG -1136 496 COM
FLAG -960 720 0
FLAG -832 720 0
FLAG -48 768 0
FLAG -48 544 COM
FLAG 112 544 OUTP
FLAG 112 912 OUTN
FLAG 896 480 0
FLAG 1024 480 0
SYMBOL voltage -1136 560 R0
WINDOW 123 0 0 Left 0
WINDOW 39 0 0 Left 0
SYMATTR InstName V1
SYMATTR Value 3.3V
SYMBOL ind -752 496 R270
WINDOW 0 32 56 VTop 2
WINDOW 3 5 56 VBottom 2
SYMATTR InstName L1
SYMATTR Value 2mH
SYMATTR SpiceLine Rser=85 Rpar=10Meg Cpar=1.216pF
SYMBOL cap -976 576 R0
SYMATTR InstName C1
SYMATTR Value 8pF
SYMBOL res -208 464 R90
WINDOW 0 0 56 VBottom 2
WINDOW 3 32 56 VTop 2
SYMATTR InstName R6
SYMATTR Value 12
SYMBOL res -848 544 R0
SYMATTR InstName R_loss
SYMATTR Value 2.4Meg
SYMBOL Comparators\\LT1711 -48 640 R0
SYMATTR InstName U1
SYMBOL cap 464 832 R90
WINDOW 0 0 32 VBottom 2
WINDOW 3 32 32 VTop 2
SYMATTR InstName C2
SYMATTR Value 820pF
SYMBOL ind 624 832 R90
WINDOW 0 5 56 VBottom 2
WINDOW 3 32 56 VTop 2
SYMATTR InstName L2
SYMATTR Value 24µH
SYMBOL cap 768 784 R180
WINDOW 0 24 56 Left 2
WINDOW 3 24 8 Left 2
SYMATTR InstName C3
SYMATTR Value 2.4nF
SYMBOL ind 928 816 R180
WINDOW 0 36 80 Left 2
WINDOW 3 36 40 Left 2
SYMATTR InstName L3
SYMATTR Value 8.2µH
SYMBOL res 320 608 R90
WINDOW 0 0 56 VBottom 2
WINDOW 3 32 56 VTop 2
SYMATTR InstName R1
SYMATTR Value 100
SYMBOL res 320 832 R90
WINDOW 0 0 56 VBottom 2
WINDOW 3 32 56 VTop 2
SYMATTR InstName R2
SYMATTR Value 100
SYMBOL ind 1104 256 R270
WINDOW 0 32 56 VTop 2
WINDOW 3 5 56 VBottom 2
SYMATTR InstName L4
SYMATTR Value 2mH
SYMATTR SpiceLine Rser=85 Rpar=10Meg Cpar=1.216pF
SYMBOL cap 880 336 R0
SYMATTR InstName C4
SYMATTR Value 8pF
SYMBOL res 1008 304 R0
SYMATTR InstName R_loss1
SYMATTR Value 2.4Meg
TEXT -1016 384 Left 2 !.tran 0 2.3m 0.3m 0.000001m
