Version 4
SHEET 1 3920 3748
WIRE 320 -16 192 -16
WIRE 544 -16 384 -16
WIRE 96 112 -256 112
WIRE 192 112 176 112
WIRE 288 112 192 112
WIRE 544 112 544 -16
WIRE 544 112 368 112
WIRE 272 208 272 176
WIRE 496 208 272 208
WIRE 272 224 272 208
WIRE 192 272 192 112
WIRE 240 272 192 272
WIRE 752 272 752 240
WIRE 544 304 544 112
WIRE 544 304 384 304
WIRE 704 304 544 304
WIRE 896 304 816 304
WIRE 96 336 16 336
WIRE 240 336 176 336
WIRE 752 384 752 336
WIRE 320 400 320 384
WIRE 496 400 496 208
WIRE 496 400 320 400
WIRE 272 432 272 384
WIRE -832 480 -832 448
WIRE -736 480 -832 480
WIRE -448 480 -736 480
WIRE -256 480 -256 112
WIRE -256 480 -368 480
WIRE -160 480 -256 480
WIRE 16 480 16 336
WIRE 16 480 -80 480
WIRE 96 480 16 480
WIRE 544 480 544 304
WIRE 544 480 176 480
WIRE -736 528 -736 480
WIRE -832 544 -832 480
WIRE -832 688 -832 608
WIRE -736 688 -736 608
WIRE -176 752 -176 672
WIRE -256 848 -256 480
WIRE -176 848 -176 816
WIRE -176 848 -256 848
WIRE -80 848 -176 848
WIRE -176 880 -176 848
WIRE -80 896 -80 848
WIRE -704 928 -704 880
WIRE -704 928 -832 928
WIRE -704 976 -704 928
WIRE -80 992 -80 960
WIRE -176 1040 -176 944
WIRE -832 1120 -832 928
WIRE -704 1136 -704 1056
WIRE -832 1216 -832 1184
WIRE -704 1248 -704 1216
FLAG -704 1248 0
FLAG -704 880 COM
FLAG -832 688 0
FLAG -832 448 ANT
FLAG -736 688 0
FLAG -832 1216 0
FLAG 272 176 COM
FLAG 272 432 0
FLAG -176 1040 0
FLAG -176 672 COM
FLAG -80 992 0
FLAG 752 240 COM
FLAG 752 384 0
FLAG 896 304 out
SYMBOL voltage -704 1120 R0
WINDOW 123 0 0 Left 0
WINDOW 39 0 0 Left 0
SYMATTR InstName V1
SYMATTR Value 4.5V
SYMBOL ind -464 496 R270
WINDOW 0 32 56 VTop 2
WINDOW 3 5 56 VBottom 2
SYMATTR InstName L1
SYMATTR Value 4.624mH
SYMATTR SpiceLine Rser=120 Rpar=100Meg Cpar=1.216pF
SYMBOL cap -848 544 R0
SYMATTR InstName C_ant
SYMATTR Value 10pF
SYMBOL res -752 512 R0
SYMATTR InstName R_loss
SYMATTR Value 17000K
SYMBOL res -64 464 R90
WINDOW 0 0 56 VBottom 2
WINDOW 3 32 56 VTop 2
SYMATTR InstName R_sense
SYMATTR Value 22
SYMBOL res -688 1072 R180
WINDOW 0 36 76 Left 2
WINDOW 3 36 40 Left 2
SYMATTR InstName R1
SYMATTR Value 1
SYMBOL cap -848 1120 R0
SYMATTR InstName C2
SYMATTR Value 10µF
SYMBOL res 272 128 R270
WINDOW 0 32 56 VTop 2
WINDOW 3 0 56 VBottom 2
SYMATTR InstName R2
SYMATTR Value 10000
SYMBOL res 80 128 R270
WINDOW 0 32 56 VTop 2
WINDOW 3 0 56 VBottom 2
SYMATTR InstName R3
SYMATTR Value 10
SYMBOL res 80 352 R270
WINDOW 0 32 56 VTop 2
WINDOW 3 0 56 VBottom 2
SYMATTR InstName R4
SYMATTR Value 10
SYMBOL res 80 496 R270
WINDOW 0 32 56 VTop 2
WINDOW 3 0 56 VBottom 2
SYMATTR InstName R5
SYMATTR Value 1
SYMBOL diode -160 816 R180
WINDOW 0 24 64 Left 2
WINDOW 3 24 0 Left 2
SYMATTR InstName D1
SYMBOL diode -160 944 R180
WINDOW 0 24 64 Left 2
WINDOW 3 24 0 Left 2
SYMATTR InstName D2
SYMBOL cap -96 896 R0
SYMATTR InstName C1
SYMATTR Value 1pF
SYMBOL cap 384 -32 R90
WINDOW 0 0 32 VBottom 2
WINDOW 3 32 32 VTop 2
SYMATTR InstName C3
SYMATTR Value 100pF
SYMBOL Opamps\\LT6200-10 272 304 R0
SYMATTR InstName U1
SYMBOL SBORKA\\Logika\\74AHC1G04 752 256 R0
SYMATTR InstName U2
TEXT -808 336 Left 2 !.tran 0 3m 1m 0.00001m
TEXT -808 376 Left 2 !.IC V(ANT)=1u
