Version 4
SHEET 1 3920 3748
WIRE -528 480 -528 448
WIRE -528 480 -656 480
WIRE -432 480 -528 480
WIRE -80 480 -352 480
WIRE 32 480 -80 480
WIRE 112 480 32 480
WIRE 224 480 192 480
WIRE 288 480 224 480
WIRE 480 480 368 480
WIRE 592 480 480 480
WIRE -656 528 -656 480
WIRE -528 544 -528 480
WIRE -848 560 -848 480
WIRE 320 592 320 544
WIRE 320 592 272 592
WIRE -80 624 -80 480
WIRE 320 640 320 592
WIRE 224 656 224 480
WIRE 304 656 224 656
WIRE -848 672 -848 640
WIRE 480 672 480 480
WIRE 480 672 368 672
WIRE -656 688 -656 608
WIRE -528 688 -528 608
WIRE 304 688 224 688
WIRE 592 704 592 480
WIRE 272 752 272 592
WIRE 352 752 352 704
WIRE 352 752 272 752
WIRE 320 800 320 704
WIRE -80 896 -80 704
WIRE 112 896 -80 896
WIRE 224 896 224 688
WIRE 224 896 192 896
WIRE -80 976 -80 896
WIRE 592 976 592 784
WIRE 592 976 -80 976
WIRE 32 1056 32 480
WIRE 112 1056 32 1056
WIRE 224 1056 192 1056
WIRE 288 1056 224 1056
WIRE 480 1056 368 1056
WIRE 480 1136 480 1056
WIRE 576 1136 480 1136
WIRE 768 1136 656 1136
WIRE 320 1152 320 1120
WIRE 320 1152 256 1152
WIRE 320 1168 320 1152
WIRE 224 1216 224 1056
WIRE 288 1216 224 1216
WIRE 480 1216 480 1136
WIRE 480 1216 448 1216
WIRE 128 1248 32 1248
WIRE 288 1248 128 1248
WIRE 32 1280 32 1248
WIRE 288 1280 224 1280
WIRE 480 1280 448 1280
WIRE 128 1312 128 1248
WIRE 256 1344 256 1152
WIRE 352 1344 352 1328
WIRE 352 1344 256 1344
WIRE 320 1376 320 1328
WIRE 32 1392 32 1360
WIRE 128 1392 128 1376
WIRE 480 1392 480 1280
WIRE 576 1392 480 1392
WIRE 768 1392 656 1392
WIRE -80 1472 -80 976
WIRE 112 1472 -80 1472
WIRE 224 1472 224 1280
WIRE 224 1472 192 1472
WIRE 288 1472 224 1472
WIRE 480 1472 480 1392
WIRE 480 1472 368 1472
FLAG -848 672 0
FLAG -848 480 COM
FLAG -528 688 0
FLAG -528 448 ANT
FLAG -656 688 0
FLAG 320 544 COM
FLAG 320 800 0
FLAG 320 1120 COM
FLAG 320 1376 0
FLAG 128 1392 0
FLAG 768 1136 OUTP
FLAG 768 1392 OUTN
FLAG 32 1392 0
SYMBOL voltage -848 544 R0
WINDOW 123 0 0 Left 0
WINDOW 39 0 0 Left 0
SYMATTR InstName V1
SYMATTR Value 3.3V
SYMBOL ind -448 496 R270
WINDOW 0 32 56 VTop 2
WINDOW 3 5 56 VBottom 2
SYMATTR InstName L1
SYMATTR Value 2.624mH
SYMATTR SpiceLine Rser=66 Rpar=10Meg Cpar=1.216pF
SYMBOL cap -544 544 R0
SYMATTR InstName C1
SYMATTR Value 10pF
SYMBOL res -672 512 R0
SYMATTR InstName R_loss
SYMATTR Value 2Meg
SYMBOL res 384 464 R90
WINDOW 0 0 56 VBottom 2
WINDOW 3 32 56 VTop 2
SYMATTR InstName R1
SYMATTR Value 3K
SYMBOL res 208 464 R90
WINDOW 0 0 56 VBottom 2
WINDOW 3 32 56 VTop 2
SYMATTR InstName R4
SYMATTR Value 1K
SYMBOL res 208 880 R90
WINDOW 0 0 56 VBottom 2
WINDOW 3 32 56 VTop 2
SYMATTR InstName R6
SYMATTR Value 1K
SYMBOL Opamps\\LTC6362 352 1248 R0
SYMATTR InstName U2
SYMBOL cap 112 1312 R0
SYMATTR InstName C3
SYMATTR Value 0.1µF
SYMBOL res 384 1040 R90
WINDOW 0 0 56 VBottom 2
WINDOW 3 32 56 VTop 2
SYMATTR InstName R7
SYMATTR Value 10K
SYMBOL res 208 1040 R90
WINDOW 0 0 56 VBottom 2
WINDOW 3 32 56 VTop 2
SYMATTR InstName R8
SYMATTR Value 10K
SYMBOL res 384 1456 R90
WINDOW 0 0 56 VBottom 2
WINDOW 3 32 56 VTop 2
SYMATTR InstName R9
SYMATTR Value 10K
SYMBOL res 208 1456 R90
WINDOW 0 0 56 VBottom 2
WINDOW 3 32 56 VTop 2
SYMATTR InstName R10
SYMATTR Value 10K
SYMBOL res -96 608 R0
SYMATTR InstName R11
SYMATTR Value 100
SYMBOL res 672 1120 R90
WINDOW 0 0 56 VBottom 2
WINDOW 3 32 56 VTop 2
SYMATTR InstName R2
SYMATTR Value 100
SYMBOL res 672 1376 R90
WINDOW 0 0 56 VBottom 2
WINDOW 3 32 56 VTop 2
SYMATTR InstName R3
SYMATTR Value 100
SYMBOL res 48 1376 R180
WINDOW 0 36 76 Left 2
WINDOW 3 36 40 Left 2
SYMATTR InstName R13
SYMATTR Value 470K
SYMBOL res 576 688 R0
SYMATTR InstName R12
SYMATTR Value 10
SYMBOL Opamps\\LTC6252 336 672 R0
SYMATTR InstName U3
TEXT -728 312 Left 2 !.tran 0 1.3m 0.3m 0.000001m
TEXT -728 352 Left 2 !.IC V(ANT)=1u
