Version 4
SHEET 1 3920 3748
WIRE -576 480 -576 448
WIRE -576 480 -704 480
WIRE -480 480 -576 480
WIRE -336 480 -400 480
WIRE -32 480 -336 480
WIRE 352 480 48 480
WIRE -704 528 -704 480
WIRE -576 544 -576 480
WIRE -896 560 -896 480
WIRE -896 672 -896 640
WIRE -704 688 -704 608
WIRE -576 688 -576 608
WIRE 128 736 128 672
WIRE 128 736 32 736
WIRE 240 736 128 736
WIRE 32 784 32 736
WIRE 32 896 32 864
WIRE 128 896 32 896
WIRE 32 912 32 896
WIRE 240 912 240 736
WIRE -336 960 -336 480
WIRE -32 960 -336 960
WIRE 352 960 352 480
WIRE 352 960 304 960
WIRE -176 1072 -176 1040
WIRE 32 1072 32 1008
WIRE 240 1072 240 1008
WIRE 240 1072 32 1072
WIRE -176 1184 -176 1152
WIRE -80 1184 -176 1184
WIRE -176 1200 -176 1184
WIRE 32 1200 32 1072
WIRE -80 1248 -80 1184
WIRE -80 1248 -112 1248
WIRE -32 1248 -80 1248
WIRE 240 1312 240 1184
WIRE -176 1344 -176 1296
WIRE -80 1344 -176 1344
WIRE 32 1344 32 1296
WIRE 32 1344 -80 1344
WIRE 128 1360 128 896
WIRE 176 1360 128 1360
WIRE -80 1392 -80 1344
WIRE 240 1456 240 1408
WIRE 352 1456 352 960
WIRE 352 1456 240 1456
WIRE 560 1456 352 1456
WIRE 240 1504 240 1456
WIRE -80 1536 -80 1472
WIRE -80 1536 -176 1536
WIRE 32 1536 -80 1536
WIRE 176 1552 128 1552
WIRE -176 1568 -176 1536
WIRE 32 1568 32 1536
WIRE -80 1616 -112 1616
WIRE -32 1616 -80 1616
WIRE -176 1696 -176 1664
WIRE -80 1696 -80 1616
WIRE -80 1696 -176 1696
WIRE 240 1696 240 1600
WIRE -176 1728 -176 1696
WIRE -176 1840 -176 1808
WIRE 32 1856 32 1664
WIRE 256 1856 32 1856
WIRE 32 1888 32 1856
WIRE 256 1888 256 1856
WIRE -336 1936 -336 960
WIRE -32 1936 -336 1936
WIRE 352 1936 352 1456
WIRE 352 1936 320 1936
WIRE 32 2016 32 1984
WIRE 128 2016 128 1552
WIRE 128 2016 32 2016
WIRE 32 2032 32 2016
WIRE 32 2144 32 2112
WIRE 128 2144 32 2144
WIRE 256 2144 256 1984
WIRE 256 2144 128 2144
WIRE 128 2192 128 2144
FLAG -896 672 0
FLAG -896 480 COM
FLAG -576 688 0
FLAG -576 448 ANT
FLAG -704 688 0
FLAG -80 1392 0
FLAG 128 672 COM
FLAG -176 1040 COM
FLAG -80 1472 COM
FLAG 128 2192 0
FLAG -176 1840 0
FLAG 240 1184 COM
FLAG 240 1696 0
FLAG 560 1456 OUT
SYMBOL voltage -896 544 R0
WINDOW 123 0 0 Left 0
WINDOW 39 0 0 Left 0
SYMATTR InstName V1
SYMATTR Value 3.3V
SYMBOL ind -496 496 R270
WINDOW 0 32 56 VTop 2
WINDOW 3 5 56 VBottom 2
SYMATTR InstName L1
SYMATTR Value 2.624mH
SYMATTR SpiceLine Rser=66 Rpar=10Meg Cpar=1.216pF
SYMBOL cap -592 544 R0
SYMATTR InstName C1
SYMATTR Value 8pF
SYMBOL res -720 512 R0
SYMATTR InstName R_loss
SYMATTR Value 2.4Meg
SYMBOL res 64 464 R90
WINDOW 0 0 56 VBottom 2
WINDOW 3 32 56 VTop 2
SYMATTR InstName R_sense
SYMATTR Value 47
SYMBOL npn -32 912 R0
SYMATTR InstName Q1
SYMATTR Value BC847C
SYMBOL npn 304 912 M0
SYMATTR InstName Q2
SYMATTR Value BC847C
SYMBOL npn -112 1200 M0
SYMATTR InstName Q3
SYMATTR Value BC847C
SYMBOL npn -32 1200 R0
SYMATTR InstName Q4
SYMATTR Value BC847C
SYMBOL res -160 1168 R180
WINDOW 0 36 76 Left 2
WINDOW 3 36 40 Left 2
SYMATTR InstName R14
SYMATTR Value 1000
SYMBOL pnp 320 1984 R180
SYMATTR InstName Q5
SYMATTR Value BC857C
SYMBOL pnp -32 1984 M180
SYMATTR InstName Q6
SYMATTR Value BC857C
SYMBOL pnp -32 1664 M180
SYMATTR InstName Q7
SYMATTR Value BC857C
SYMBOL pnp -112 1664 R180
SYMATTR InstName Q8
SYMATTR Value BC857C
SYMBOL res -160 1824 R180
WINDOW 0 36 76 Left 2
WINDOW 3 36 40 Left 2
SYMATTR InstName R16
SYMATTR Value 1000
SYMBOL res 48 2128 R180
WINDOW 0 36 76 Left 2
WINDOW 3 36 40 Left 2
SYMATTR InstName R18
SYMATTR Value 820
SYMBOL res 48 880 R180
WINDOW 0 36 76 Left 2
WINDOW 3 36 40 Left 2
SYMATTR InstName R19
SYMATTR Value 820
SYMBOL npn 176 1312 R0
SYMATTR InstName Q9
SYMATTR Value BC847C
SYMBOL pnp 176 1600 M180
SYMATTR InstName Q10
SYMATTR Value BC857C
TEXT -728 312 Left 2 !.tran 0 1.3m 0.3m 0.000001m
TEXT -728 352 Left 2 !.IC V(ANT)=1u
