Version 4
SHEET 1 3920 3748
WIRE 752 -416 640 -416
WIRE 928 -416 816 -416
WIRE 640 -272 640 -416
WIRE 752 -272 640 -272
WIRE 928 -272 832 -272
WIRE 752 -128 752 -176
WIRE 752 -128 688 -128
WIRE 752 -112 752 -128
WIRE 512 -80 -304 -80
WIRE 640 -80 640 -272
WIRE 640 -80 592 -80
WIRE 672 -80 640 -80
WIRE 928 -80 928 -272
WIRE 928 -80 880 -80
WIRE 1136 -80 928 -80
WIRE 1248 -80 1136 -80
WIRE 1424 -80 1328 -80
WIRE 672 -64 672 -80
WIRE 720 -64 672 -64
WIRE 880 -64 880 -80
WIRE 720 -32 320 -32
WIRE 720 0 672 0
WIRE 512 16 416 16
WIRE 640 16 592 16
WIRE 672 16 672 0
WIRE 672 16 640 16
WIRE 880 16 880 0
WIRE 928 16 880 16
WIRE 320 64 320 -32
WIRE 688 64 688 -128
WIRE 784 64 784 48
WIRE 784 64 688 64
WIRE 928 80 928 16
WIRE 992 80 928 80
WIRE 1136 80 1136 -80
WIRE 1136 80 1072 80
WIRE 752 96 752 48
WIRE 320 176 320 128
WIRE 640 208 640 16
WIRE 752 208 640 208
WIRE 928 208 928 80
WIRE 928 208 832 208
WIRE 1136 208 1136 80
WIRE 1136 208 1088 208
WIRE 640 336 640 208
WIRE 768 336 640 336
WIRE 928 336 832 336
WIRE -304 384 -304 -80
WIRE -304 384 -480 384
WIRE -704 480 -704 448
WIRE -704 480 -832 480
WIRE -624 480 -704 480
WIRE -480 480 -480 384
WIRE -480 480 -544 480
WIRE -448 480 -480 480
WIRE -304 480 -304 384
WIRE -32 480 -304 480
WIRE 416 480 416 16
WIRE 416 480 48 480
WIRE 1424 480 1424 -80
WIRE 1424 480 416 480
WIRE -832 528 -832 480
WIRE -704 544 -704 480
WIRE -976 576 -976 480
WIRE 752 656 640 656
WIRE 928 656 832 656
WIRE -976 688 -976 656
WIRE -976 688 -1104 688
WIRE -832 688 -832 608
WIRE -704 688 -704 608
WIRE -208 704 -208 640
WIRE 208 704 208 640
WIRE -1104 720 -1104 688
WIRE -976 736 -976 688
WIRE 1152 736 1152 672
WIRE 752 800 752 752
WIRE 752 800 688 800
WIRE -1104 816 -1104 784
WIRE 752 816 752 800
WIRE -976 848 -976 816
WIRE 416 848 416 480
WIRE 512 848 416 848
WIRE 640 848 640 656
WIRE 640 848 592 848
WIRE 672 848 640 848
WIRE 928 848 928 656
WIRE 928 848 880 848
WIRE 992 848 928 848
WIRE 1152 848 1152 800
WIRE 1152 848 1072 848
WIRE 1280 848 1152 848
WIRE 672 864 672 848
WIRE 720 864 672 864
WIRE 880 864 880 848
WIRE 1152 864 1152 848
WIRE -80 896 -144 896
WIRE 720 896 -80 896
WIRE 720 928 672 928
WIRE -304 944 -304 480
WIRE 512 944 -304 944
WIRE 640 944 592 944
WIRE 672 944 672 928
WIRE 672 944 640 944
WIRE 880 944 880 928
WIRE 928 944 880 944
WIRE 992 944 928 944
WIRE 1152 944 1152 928
WIRE 1152 944 1072 944
WIRE 1280 944 1152 944
WIRE -144 976 -144 896
WIRE -80 992 -80 896
WIRE 688 992 688 800
WIRE 784 992 784 976
WIRE 784 992 688 992
WIRE 1152 992 1152 944
WIRE 752 1024 752 976
WIRE -144 1104 -144 1056
WIRE -80 1104 -80 1056
WIRE 1152 1104 1152 1056
WIRE 640 1136 640 944
WIRE 752 1136 640 1136
WIRE 928 1136 928 944
WIRE 928 1136 832 1136
FLAG -976 848 0
FLAG -976 480 COM
FLAG -704 688 0
FLAG -704 448 ANT
FLAG -832 688 0
FLAG -1104 816 0
FLAG 752 1024 0
FLAG 752 752 COM
FLAG -80 1104 0
FLAG 1152 1104 0
FLAG 1152 672 0
FLAG -144 1104 0
FLAG 752 96 0
FLAG 752 -176 COM
FLAG 320 176 0
FLAG -208 704 0
FLAG 208 704 0
SYMBOL voltage -976 720 R0
WINDOW 123 0 0 Left 0
WINDOW 39 0 0 Left 0
SYMATTR InstName V1
SYMATTR Value 3.3V
SYMBOL ind -640 496 R270
WINDOW 0 32 56 VTop 2
WINDOW 3 5 56 VBottom 2
SYMATTR InstName L1
SYMATTR Value 2.624mH
SYMATTR SpiceLine Rser=66 Rpar=10Meg Cpar=1.216pF
SYMBOL cap -720 544 R0
SYMATTR InstName C_ant
SYMATTR Value 8pF
SYMBOL res -848 512 R0
SYMATTR InstName R_loss
SYMATTR Value 1Meg
SYMBOL res 64 464 R90
WINDOW 0 0 56 VBottom 2
WINDOW 3 32 56 VTop 2
SYMATTR InstName R_sense
SYMATTR Value 100
SYMBOL res -960 672 R180
WINDOW 0 36 76 Left 2
WINDOW 3 36 40 Left 2
SYMATTR InstName R1
SYMATTR Value 1
SYMBOL cap -1120 720 R0
SYMATTR InstName C2
SYMATTR Value 0.1µF
SYMBOL cap -96 992 R0
SYMATTR InstName C5
SYMATTR Value 1nF
SYMBOL res 496 864 R270
WINDOW 0 32 56 VTop 2
WINDOW 3 0 56 VBottom 2
SYMATTR InstName R2
SYMATTR Value 10K
SYMBOL res 496 960 R270
WINDOW 0 32 56 VTop 2
WINDOW 3 0 56 VBottom 2
SYMATTR InstName R3
SYMATTR Value 10K
SYMBOL res 736 672 R270
WINDOW 0 32 56 VTop 2
WINDOW 3 0 56 VBottom 2
SYMATTR InstName R6
SYMATTR Value 22K
SYMBOL res 736 1152 R270
WINDOW 0 32 56 VTop 2
WINDOW 3 0 56 VBottom 2
SYMATTR InstName R7
SYMATTR Value 22K
SYMBOL res 976 864 R270
WINDOW 0 32 56 VTop 2
WINDOW 3 0 56 VBottom 2
SYMATTR InstName R8
SYMATTR Value 100
SYMBOL res 976 960 R270
WINDOW 0 32 56 VTop 2
WINDOW 3 0 56 VBottom 2
SYMATTR InstName R9
SYMATTR Value 100
SYMBOL cap 1136 992 R0
SYMATTR InstName C6
SYMATTR Value 100pF
SYMBOL cap 1136 864 R0
SYMATTR InstName C7
SYMATTR Value 100pF
SYMBOL cap 1136 736 R0
SYMATTR InstName C8
SYMATTR Value 100pF
SYMBOL res 1264 848 R0
SYMATTR InstName R10
SYMATTR Value 100
SYMBOL Opamps\\LTC6362 784 896 R0
SYMATTR InstName U2
SYMBOL res -128 1072 R180
WINDOW 0 36 76 Left 2
WINDOW 3 36 40 Left 2
SYMATTR InstName R11
SYMATTR Value 470K
SYMBOL cap 304 64 R0
SYMATTR InstName C9
SYMATTR Value 1nF
SYMBOL res 496 -64 R270
WINDOW 0 32 56 VTop 2
WINDOW 3 0 56 VBottom 2
SYMATTR InstName R12
SYMATTR Value 1000
SYMBOL res 496 32 R270
WINDOW 0 32 56 VTop 2
WINDOW 3 0 56 VBottom 2
SYMATTR InstName R13
SYMATTR Value 1000
SYMBOL res 736 -256 R270
WINDOW 0 32 56 VTop 2
WINDOW 3 0 56 VBottom 2
SYMATTR InstName R14
SYMATTR Value 33k
SYMBOL res 736 224 R270
WINDOW 0 32 56 VTop 2
WINDOW 3 0 56 VBottom 2
SYMATTR InstName R15
SYMATTR Value 33k
SYMBOL res 1232 -64 R270
WINDOW 0 32 56 VTop 2
WINDOW 3 0 56 VBottom 2
SYMATTR InstName R17
SYMATTR Value 1
SYMBOL Opamps\\LTC6362 784 -32 R0
SYMATTR InstName U1
SYMBOL cap 832 320 R90
WINDOW 0 0 32 VBottom 2
WINDOW 3 32 32 VTop 2
SYMATTR InstName C1
SYMATTR Value 3pF
SYMBOL cap 816 -432 R90
WINDOW 0 0 32 VBottom 2
WINDOW 3 32 32 VTop 2
SYMATTR InstName C3
SYMATTR Value 3pF
SYMBOL cap 1088 192 R90
WINDOW 0 0 32 VBottom 2
WINDOW 3 32 32 VTop 2
SYMATTR InstName C4
SYMATTR Value 220pF
SYMBOL cap -224 576 R0
SYMATTR InstName C10
SYMATTR Value 10pF
SYMBOL cap 192 576 R0
SYMATTR InstName C11
SYMATTR Value 10pF
SYMBOL cap -384 464 R90
WINDOW 0 0 32 VBottom 2
WINDOW 3 32 32 VTop 2
SYMATTR InstName C12
SYMATTR Value 1000pF
SYMBOL res 976 96 R270
WINDOW 0 32 56 VTop 2
WINDOW 3 0 56 VBottom 2
SYMATTR InstName R4
SYMATTR Value 1000
TEXT -984 336 Left 2 !.tran 0 1.5m 0.5m 0.00001m
TEXT -984 376 Left 2 !.IC V(ANT)=1u
