Version 4
SHEET 1 3920 3748
WIRE -672 480 -672 448
WIRE -544 480 -672 480
WIRE -400 480 -544 480
WIRE -288 480 -400 480
WIRE -144 480 -144 400
WIRE -144 480 -208 480
WIRE -112 480 -144 480
WIRE 0 480 0 400
WIRE 0 480 -32 480
WIRE 288 480 0 480
WIRE 288 512 288 480
WIRE 448 512 448 480
WIRE -672 544 -672 480
WIRE -544 544 -544 480
WIRE -400 544 -400 480
WIRE 80 608 80 560
WIRE 0 640 0 480
WIRE 48 640 0 640
WIRE 448 640 448 592
WIRE 448 640 128 640
WIRE 624 640 448 640
WIRE 672 640 624 640
WIRE -144 672 -144 480
WIRE 48 672 -144 672
WIRE 288 672 288 592
WIRE 288 672 128 672
WIRE -672 688 -672 608
WIRE -544 688 -544 608
WIRE -400 688 -400 624
WIRE 64 736 64 704
WIRE 80 736 80 704
WIRE 80 736 64 736
WIRE 96 736 96 704
WIRE 96 736 80 736
WIRE 80 784 80 736
WIRE 288 784 288 672
WIRE 496 784 288 784
WIRE 672 784 496 784
WIRE -400 832 -400 768
WIRE -400 832 -448 832
WIRE 496 832 496 784
WIRE 624 832 624 640
WIRE -448 880 -448 832
WIRE -400 880 -400 832
WIRE -672 944 -672 832
WIRE 496 960 496 912
WIRE 624 960 624 912
WIRE -448 976 -448 944
WIRE -400 976 -400 944
WIRE -400 976 -448 976
WIRE -320 976 -400 976
WIRE -448 1008 -448 976
WIRE -400 1008 -400 976
WIRE -448 1104 -448 1072
WIRE -400 1104 -400 1072
WIRE -400 1104 -448 1104
WIRE -672 1152 -672 1024
WIRE -400 1152 -400 1104
FLAG -672 1152 0
FLAG -672 832 COM
FLAG -544 688 0
FLAG 80 784 0
FLAG 80 560 COM
FLAG 672 640 OUTP
FLAG -672 448 ANT
FLAG -400 688 0
FLAG -672 688 0
FLAG 672 784 OUTN
FLAG -400 1152 0
FLAG -400 768 COM
FLAG -320 976 ESD1
FLAG -144 400 ESD1
FLAG 0 400 FEED
FLAG 496 960 0
FLAG 624 960 0
SYMBOL voltage -672 928 R0
WINDOW 123 0 0 Left 0
WINDOW 39 0 0 Left 0
SYMATTR InstName V1
SYMATTR Value 3.3V
SYMBOL ind -304 496 R270
WINDOW 0 32 56 VTop 2
WINDOW 3 5 56 VBottom 2
SYMATTR InstName L1
SYMATTR Value 2mH
SYMATTR SpiceLine Rser=85 Rpar=10Meg Cpar=1.216pF
SYMBOL cap -560 544 R0
SYMATTR InstName C_ant
SYMATTR Value 8pF
SYMBOL res -128 496 R270
WINDOW 0 32 56 VTop 2
WINDOW 3 0 56 VBottom 2
SYMATTR InstName R_sense
SYMATTR Value 22
SYMBOL res 464 608 R180
WINDOW 0 36 76 Left 2
WINDOW 3 36 40 Left 2
SYMATTR InstName R1
SYMATTR Value 330
SYMBOL res 304 608 R180
WINDOW 0 36 76 Left 2
WINDOW 3 36 40 Left 2
SYMATTR InstName R2
SYMATTR Value 1
SYMBOL res -416 528 R0
SYMATTR InstName R_loss
SYMATTR Value 2700K
SYMBOL cap -688 544 R0
SYMATTR InstName C_hand
SYMATTR Value 1.5pF
SYMBOL diode -432 944 R180
WINDOW 0 24 64 Left 2
WINDOW 3 24 0 Left 2
SYMATTR InstName D1
SYMBOL diode -432 1072 R180
WINDOW 0 24 64 Left 2
WINDOW 3 24 0 Left 2
SYMATTR InstName D2
SYMBOL cap -416 880 R0
SYMATTR InstName C1
SYMATTR Value 0.5pF
SYMBOL cap -416 1008 R0
SYMATTR InstName C2
SYMATTR Value 0.5pF
SYMBOL OpAmp.Add\\ad8611 80 656 R0
SYMATTR InstName U1
SYMBOL res 512 928 R180
WINDOW 0 36 76 Left 2
WINDOW 3 36 40 Left 2
SYMATTR InstName R3
SYMATTR Value 1000
SYMBOL res 640 928 R180
WINDOW 0 36 76 Left 2
WINDOW 3 36 40 Left 2
SYMATTR InstName R4
SYMATTR Value 1000
TEXT -680 344 Left 2 !.tran 0 1.3m 0.3m 0.0001m
TEXT -616 432 Left 2 !.IC V(ANT)=1u
