Version 4
SHEET 1 3920 3748
WIRE -592 496 -592 448
WIRE -416 496 -592 496
WIRE -240 496 -416 496
WIRE -128 496 -240 496
WIRE 16 496 16 432
WIRE 16 496 -48 496
WIRE 96 496 16 496
WIRE 128 496 96 496
WIRE 240 496 208 496
WIRE 784 496 240 496
WIRE -592 544 -592 496
WIRE -416 544 -416 496
WIRE -240 560 -240 496
WIRE 368 592 368 544
WIRE 464 592 464 544
WIRE 240 656 240 496
WIRE 288 656 240 656
WIRE 688 656 544 656
WIRE 832 656 688 656
WIRE 992 656 832 656
WIRE 96 688 96 496
WIRE 288 688 96 688
WIRE 592 688 544 688
WIRE 688 688 688 656
WIRE -592 704 -592 608
WIRE -416 704 -416 608
WIRE -240 704 -240 640
WIRE 288 736 256 736
WIRE 832 768 832 656
WIRE 256 784 256 736
WIRE 288 784 256 784
WIRE -544 832 -544 784
WIRE -544 832 -640 832
WIRE -240 832 -240 784
WIRE -240 832 -352 832
WIRE 256 832 256 784
WIRE -544 848 -544 832
WIRE -352 864 -352 832
WIRE -240 864 -240 832
WIRE 464 864 464 816
WIRE 592 928 592 688
WIRE 688 928 688 896
WIRE 688 928 592 928
WIRE 784 928 784 496
WIRE 784 928 688 928
WIRE 832 928 832 848
WIRE 832 928 784 928
WIRE 992 928 832 928
WIRE -544 944 -544 928
WIRE -640 960 -640 832
WIRE -352 976 -352 928
WIRE -240 976 -240 928
WIRE -240 976 -352 976
WIRE -176 976 -240 976
WIRE -352 1024 -352 976
WIRE -240 1024 -240 976
WIRE -640 1056 -640 1024
WIRE -544 1056 -544 1024
WIRE 832 1120 832 1072
WIRE 944 1120 944 1072
WIRE -352 1136 -352 1088
WIRE -240 1136 -240 1088
WIRE -240 1136 -352 1136
WIRE -240 1184 -240 1136
FLAG -544 1056 0
FLAG -544 784 COM
FLAG -240 1184 0
FLAG -240 784 COM
FLAG -176 976 ESD1
FLAG -592 448 ANT
FLAG -592 704 0
FLAG -416 704 0
FLAG -240 704 0
FLAG 16 432 ESD1
FLAG 992 656 OUTP
FLAG -640 1056 0
FLAG 368 544 COM
FLAG 464 544 COM
FLAG 464 864 0
FLAG 256 832 COM
FLAG 992 928 OUTN
FLAG 832 1120 0
FLAG 944 1120 0
SYMBOL voltage -544 928 R0
WINDOW 123 0 0 Left 0
WINDOW 39 0 0 Left 0
SYMATTR InstName V1
SYMATTR Value 3.3V
SYMBOL diode -224 1088 R180
WINDOW 0 24 64 Left 2
WINDOW 3 24 0 Left 2
SYMATTR InstName D1
SYMBOL diode -224 928 R180
WINDOW 0 24 64 Left 2
WINDOW 3 24 0 Left 2
SYMATTR InstName D2
SYMBOL cap -368 1024 R0
SYMATTR InstName C7
SYMATTR Value 0.5pF
SYMBOL cap -368 864 R0
SYMATTR InstName C10
SYMATTR Value 0.5pF
SYMBOL ind -144 512 R270
WINDOW 0 32 56 VTop 2
WINDOW 3 5 56 VBottom 2
SYMATTR InstName L1
SYMATTR Value 2.4mH
SYMATTR SpiceLine Rser=85 Rpar=10Meg Cpar=1.216pF
SYMBOL cap -432 544 R0
SYMATTR InstName C_ant
SYMATTR Value 8pF
SYMBOL cap -608 544 R0
SYMATTR InstName C_hand
SYMATTR Value 0.0001pF
SYMBOL res -256 544 R0
SYMATTR InstName R_loss
SYMATTR Value 2400K
SYMBOL res 112 512 R270
WINDOW 0 32 56 VTop 2
WINDOW 3 0 56 VBottom 2
SYMATTR InstName R47
SYMATTR Value 100
SYMBOL res -560 832 R0
SYMATTR InstName R1
SYMATTR Value 1
SYMBOL cap -656 960 R0
SYMATTR InstName C1
SYMATTR Value 10µF
SYMBOL Comparators\\LTC6754 416 704 R0
SYMATTR InstName U2
SYMBOL res 816 976 R0
SYMATTR InstName R2
SYMATTR Value 100
SYMBOL res 928 976 R0
SYMATTR InstName R3
SYMATTR Value 100
SYMBOL res 672 800 R0
SYMATTR InstName R4
SYMATTR Value 10
SYMBOL res 672 672 R0
SYMATTR InstName R5
SYMATTR Value 100
SYMBOL res 816 752 R0
SYMATTR InstName R6
SYMATTR Value 100
TEXT -544 368 Left 2 !.tran 0 1.3m 0.3m 0.00001m
TEXT -552 432 Left 2 !.IC V(ANT)=1
