Version 4
SHEET 1 3920 3748
WIRE -592 496 -592 448
WIRE -416 496 -592 496
WIRE -240 496 -416 496
WIRE -128 496 -240 496
WIRE 16 496 16 432
WIRE 16 496 -48 496
WIRE 80 496 16 496
WIRE 128 496 80 496
WIRE 240 496 208 496
WIRE 672 496 240 496
WIRE -592 544 -592 496
WIRE -416 544 -416 496
WIRE -240 560 -240 496
WIRE 528 608 464 608
WIRE 672 608 672 496
WIRE 672 608 608 608
WIRE 352 672 352 624
WIRE -592 704 -592 608
WIRE -416 704 -416 608
WIRE -240 704 -240 640
WIRE 240 704 240 496
WIRE 320 704 240 704
WIRE 464 704 464 608
WIRE 464 704 400 704
WIRE 80 736 80 496
WIRE 320 736 80 736
WIRE 528 736 400 736
WIRE 672 736 672 608
WIRE 672 736 608 736
WIRE 336 800 336 768
WIRE 352 800 352 768
WIRE 352 800 336 800
WIRE 368 800 368 768
WIRE 368 800 352 800
WIRE -544 832 -544 784
WIRE -544 832 -640 832
WIRE -240 832 -240 784
WIRE -240 832 -352 832
WIRE -544 848 -544 832
WIRE 352 848 352 800
WIRE -352 864 -352 832
WIRE -240 864 -240 832
WIRE 848 912 768 912
WIRE 1120 912 928 912
WIRE -544 944 -544 928
WIRE -640 960 -640 832
WIRE -352 976 -352 928
WIRE -240 976 -240 928
WIRE -240 976 -352 976
WIRE -176 976 -240 976
WIRE -352 1024 -352 976
WIRE -240 1024 -240 976
WIRE 944 1024 944 976
WIRE 944 1024 880 1024
WIRE -640 1056 -640 1024
WIRE -544 1056 -544 1024
WIRE 944 1104 944 1024
WIRE -352 1136 -352 1088
WIRE -240 1136 -240 1088
WIRE -240 1136 -352 1136
WIRE 80 1152 80 736
WIRE 352 1152 80 1152
WIRE 768 1152 768 912
WIRE 768 1152 432 1152
WIRE 912 1152 768 1152
WIRE 1120 1152 1120 912
WIRE 1120 1152 1072 1152
WIRE 1168 1152 1120 1152
WIRE 1552 1152 1248 1152
WIRE 1760 1152 1552 1152
WIRE 1840 1152 1760 1152
WIRE 1952 1152 1840 1152
WIRE -240 1184 -240 1136
WIRE 688 1184 592 1184
WIRE 912 1184 688 1184
WIRE 912 1216 768 1216
WIRE 1120 1216 1072 1216
WIRE 1552 1232 1552 1152
WIRE 592 1264 592 1184
WIRE 1760 1264 1760 1152
WIRE 1840 1264 1840 1152
WIRE 688 1280 688 1184
WIRE 880 1344 880 1024
WIRE 976 1344 976 1264
WIRE 976 1344 880 1344
WIRE 1552 1344 1552 1296
WIRE 592 1392 592 1344
WIRE 688 1392 688 1344
WIRE 944 1392 944 1264
WIRE 240 1456 240 704
WIRE 352 1456 240 1456
WIRE 768 1456 768 1216
WIRE 768 1456 432 1456
WIRE 848 1456 768 1456
WIRE 1120 1456 1120 1216
WIRE 1120 1456 928 1456
WIRE 1168 1456 1120 1456
WIRE 1552 1456 1248 1456
WIRE 1760 1456 1760 1344
WIRE 1760 1456 1552 1456
WIRE 1840 1456 1840 1328
WIRE 1840 1456 1760 1456
WIRE 1952 1456 1840 1456
WIRE 1552 1504 1552 1456
WIRE 1552 1616 1552 1568
FLAG -544 1056 0
FLAG -544 784 COM
FLAG -240 1184 0
FLAG -240 784 COM
FLAG -176 976 ESD1
FLAG -592 448 ANT
FLAG -592 704 0
FLAG -416 704 0
FLAG -240 704 0
FLAG 16 432 ESD1
FLAG -640 1056 0
FLAG 944 976 COM
FLAG 944 1392 0
FLAG 688 1392 0
FLAG 352 848 0
FLAG 352 624 COM
FLAG 1552 1344 0
FLAG 1552 1616 0
FLAG 1952 1152 outp
FLAG 1952 1456 outn
FLAG 592 1392 0
SYMBOL voltage -544 928 R0
WINDOW 123 0 0 Left 0
WINDOW 39 0 0 Left 0
SYMATTR InstName V1
SYMATTR Value 3.3V
SYMBOL diode -224 1088 R180
WINDOW 0 24 64 Left 2
WINDOW 3 24 0 Left 2
SYMATTR InstName D1
SYMBOL diode -224 928 R180
WINDOW 0 24 64 Left 2
WINDOW 3 24 0 Left 2
SYMATTR InstName D2
SYMBOL cap -368 1024 R0
SYMATTR InstName C7
SYMATTR Value 0.5pF
SYMBOL cap -368 864 R0
SYMATTR InstName C10
SYMATTR Value 0.5pF
SYMBOL ind -144 512 R270
WINDOW 0 32 56 VTop 2
WINDOW 3 5 56 VBottom 2
SYMATTR InstName L1
SYMATTR Value 2.4mH
SYMATTR SpiceLine Rser=85 Rpar=10Meg Cpar=1.216pF
SYMBOL cap -432 544 R0
SYMATTR InstName C_ant
SYMATTR Value 8pF
SYMBOL cap -608 544 R0
SYMATTR InstName C_hand
SYMATTR Value 0.001pF
SYMBOL res -256 544 R0
SYMATTR InstName R_loss
SYMATTR Value 2200K
SYMBOL res 112 512 R270
WINDOW 0 32 56 VTop 2
WINDOW 3 0 56 VBottom 2
SYMATTR InstName R47
SYMATTR Value 100
SYMBOL res -560 832 R0
SYMATTR InstName R1
SYMATTR Value 1
SYMBOL cap -656 960 R0
SYMATTR InstName C1
SYMATTR Value 1µF
SYMBOL cap 672 1280 R0
SYMATTR InstName C2
SYMATTR Value 0.1µF
SYMBOL res 944 896 R90
WINDOW 0 0 56 VBottom 2
WINDOW 3 32 56 VTop 2
SYMATTR InstName R3
SYMATTR Value 47K
SYMBOL res 944 1440 R90
WINDOW 0 0 56 VBottom 2
WINDOW 3 32 56 VTop 2
SYMATTR InstName R4
SYMATTR Value 47K
SYMBOL res 448 1136 R90
WINDOW 0 0 56 VBottom 2
WINDOW 3 32 56 VTop 2
SYMATTR InstName R5
SYMATTR Value 15K
SYMBOL res 448 1440 R90
WINDOW 0 0 56 VBottom 2
WINDOW 3 32 56 VTop 2
SYMATTR InstName R6
SYMATTR Value 15K
SYMBOL res 1776 1360 R180
WINDOW 0 36 76 Left 2
WINDOW 3 36 40 Left 2
SYMATTR InstName R9
SYMATTR Value 100
SYMBOL Opamps\\LTC6362 976 1184 R0
SYMATTR InstName U3
SYMBOL Comparators\\LT1711 352 720 R0
SYMATTR InstName U1
SYMBOL cap 1536 1232 R0
SYMATTR InstName C3
SYMATTR Value 100pF
SYMBOL cap 1536 1504 R0
SYMATTR InstName C4
SYMATTR Value 100pF
SYMBOL res 1264 1136 R90
WINDOW 0 0 56 VBottom 2
WINDOW 3 32 56 VTop 2
SYMATTR InstName R2
SYMATTR Value 47
SYMBOL res 1264 1440 R90
WINDOW 0 0 56 VBottom 2
WINDOW 3 32 56 VTop 2
SYMATTR InstName R7
SYMATTR Value 47
SYMBOL cap 1824 1264 R0
SYMATTR InstName C5
SYMATTR Value 150pF
SYMBOL res 512 624 R270
WINDOW 0 32 56 VTop 2
WINDOW 3 0 56 VBottom 2
SYMATTR InstName R8
SYMATTR Value 1000
SYMBOL res 512 752 R270
WINDOW 0 32 56 VTop 2
WINDOW 3 0 56 VBottom 2
SYMATTR InstName R10
SYMATTR Value 220
SYMBOL res 608 1360 R180
WINDOW 0 36 76 Left 2
WINDOW 3 36 40 Left 2
SYMATTR InstName R11
SYMATTR Value 470K
TEXT -544 368 Left 2 !.tran 0 1.2m 0.2m 0.00001m
TEXT -552 432 Left 2 !.IC V(ANT)=1
