Version 4
SHEET 1 2908 2724
WIRE -1056 -336 -1056 -400
WIRE -976 -336 -1056 -336
WIRE -832 -336 -896 -336
WIRE -752 -336 -832 -336
WIRE 112 -304 112 -368
WIRE 112 -304 64 -304
WIRE 400 -304 400 -368
WIRE 400 -304 352 -304
WIRE -1056 -288 -1056 -336
WIRE -832 -288 -832 -336
WIRE 64 -256 64 -304
WIRE 112 -256 112 -304
WIRE 352 -256 352 -304
WIRE 400 -256 400 -304
WIRE -1056 -160 -1056 -208
WIRE -832 -160 -832 -224
WIRE 64 -160 64 -192
WIRE 112 -160 112 -192
WIRE 112 -160 64 -160
WIRE 192 -160 112 -160
WIRE 352 -160 352 -192
WIRE 400 -160 400 -192
WIRE 400 -160 352 -160
WIRE 480 -160 400 -160
WIRE 64 -128 64 -160
WIRE 112 -128 112 -160
WIRE 352 -128 352 -160
WIRE 400 -128 400 -160
WIRE 64 -32 64 -64
WIRE 112 -32 112 -64
WIRE 112 -32 64 -32
WIRE 352 -32 352 -64
WIRE 400 -32 400 -64
WIRE 400 -32 352 -32
WIRE 112 16 112 -32
WIRE 400 16 400 -32
WIRE 400 208 400 160
WIRE 288 240 288 160
WIRE 352 240 288 240
WIRE 512 240 464 240
WIRE 400 320 400 272
WIRE 416 1296 272 1296
WIRE 656 1296 416 1296
WIRE 800 1296 656 1296
WIRE 272 1376 272 1296
WIRE 416 1488 416 1296
WIRE 656 1504 656 1296
WIRE -1248 1536 -1248 1488
WIRE -1136 1536 -1248 1536
WIRE -976 1536 -1136 1536
WIRE -784 1536 -976 1536
WIRE -560 1536 -784 1536
WIRE -448 1536 -560 1536
WIRE -176 1536 -176 1440
WIRE -176 1536 -384 1536
WIRE -32 1536 -176 1536
WIRE 144 1536 -32 1536
WIRE 272 1536 272 1456
WIRE 272 1536 224 1536
WIRE 352 1536 272 1536
WIRE -32 1616 -32 1536
WIRE -976 1632 -976 1536
WIRE -784 1632 -784 1536
WIRE -1248 1648 -1248 1536
WIRE -1136 1648 -1136 1536
WIRE -32 1760 -32 1680
WIRE 416 1760 416 1584
WIRE 416 1760 -32 1760
WIRE 656 1760 656 1568
WIRE 656 1760 416 1760
WIRE 864 1760 656 1760
WIRE -1248 1808 -1248 1712
WIRE -1136 1808 -1136 1712
WIRE -976 1808 -976 1712
WIRE -784 1808 -784 1712
WIRE -32 1840 -32 1760
WIRE 416 1936 416 1760
WIRE 656 1936 656 1760
WIRE -560 1984 -560 1536
WIRE -448 1984 -560 1984
WIRE -176 1984 -384 1984
WIRE -32 1984 -32 1904
WIRE -32 1984 -176 1984
WIRE 112 1984 -32 1984
WIRE 272 1984 192 1984
WIRE 352 1984 272 1984
WIRE 272 2064 272 1984
WIRE -176 2128 -176 1984
WIRE 272 2208 272 2144
WIRE 416 2208 416 2032
WIRE 416 2208 272 2208
WIRE 656 2208 656 2000
WIRE 656 2208 416 2208
WIRE 416 2272 416 2208
FLAG -1056 -160 0
FLAG -1248 1808 0
FLAG -1248 1488 ANT
FLAG -1056 -400 COM
FLAG 112 16 0
FLAG 112 -368 COM
FLAG 192 -160 ESD1
FLAG 400 16 0
FLAG 400 -368 COM
FLAG 480 -160 ESD2
FLAG -1136 1808 0
FLAG -176 1440 ESD1
FLAG 512 240 OSC_BUF
FLAG -832 -160 0
FLAG 400 320 0
FLAG -976 1808 0
FLAG -784 1808 0
FLAG -752 -336 FLT3V3
FLAG 400 160 FLT3V3
FLAG 800 1296 FLT3V3
FLAG 864 1760 OSC_OUT
FLAG -176 2128 ESD2
FLAG 288 160 0
FLAG 416 2272 0
SYMBOL voltage -1056 -304 R0
WINDOW 123 0 0 Left 2
WINDOW 39 0 0 Left 2
SYMATTR InstName V1
SYMATTR Value 3.3V
SYMBOL ind -800 1728 M180
WINDOW 0 36 80 Left 2
WINDOW 3 36 40 Left 2
SYMATTR InstName L1
SYMATTR Value 1mH
SYMATTR SpiceLine Ipk=0.1 Rser=101 Rpar=2Meg Cpar=1.286pF
SYMBOL cap -1232 1648 M0
SYMATTR InstName Chand
SYMATTR Value 1pF
SYMBOL diode 80 -192 R180
WINDOW 0 24 64 Left 2
WINDOW 3 24 0 Left 2
SYMATTR InstName D3
SYMBOL diode 80 -64 R180
WINDOW 0 24 64 Left 2
WINDOW 3 24 0 Left 2
SYMATTR InstName D4
SYMBOL cap 96 -256 R0
SYMATTR InstName C10
SYMATTR Value 0.5pF
SYMBOL cap 96 -128 R0
SYMATTR InstName C11
SYMATTR Value 0.5pF
SYMBOL diode 368 -192 R180
WINDOW 0 24 64 Left 2
WINDOW 3 24 0 Left 2
SYMATTR InstName D6
SYMBOL diode 368 -64 R180
WINDOW 0 24 64 Left 2
WINDOW 3 24 0 Left 2
SYMATTR InstName D7
SYMBOL cap 384 -256 R0
SYMATTR InstName C12
SYMATTR Value 0.5pF
SYMBOL cap 384 -128 R0
SYMATTR InstName C13
SYMATTR Value 0.5pF
SYMBOL cap -1120 1648 M0
SYMATTR InstName Cant
SYMATTR Value 8pF
SYMBOL res -880 -352 R90
WINDOW 0 5 56 VBottom 2
WINDOW 3 27 56 VTop 2
SYMATTR InstName R4
SYMATTR Value 10
SYMBOL cap -848 -288 R0
SYMATTR InstName C4
SYMATTR Value 1µF
SYMBOL SBORKA\\Logika\\74AHC1G04 400 192 R0
SYMATTR InstName U3
SYMBOL res 288 1472 R180
WINDOW 0 31 76 Left 2
WINDOW 3 31 40 Left 2
SYMATTR InstName R1
SYMATTR Value 220K
SYMBOL res -960 1728 R180
WINDOW 0 31 76 Left 2
WINDOW 3 31 40 Left 2
SYMATTR InstName R2
SYMATTR Value 3.6Meg
SYMBOL cap -48 1616 R0
SYMATTR InstName C1
SYMATTR Value 220pF
SYMBOL cap -384 1520 R90
WINDOW 0 0 32 VBottom 2
WINDOW 3 32 32 VTop 2
SYMATTR InstName C2
SYMATTR Value 7pF
SYMBOL cap 640 1936 R0
SYMATTR InstName C3
SYMATTR Value 220pF
SYMBOL npn 352 1488 R0
SYMATTR InstName Q1
SYMATTR Value 2N3904
SYMBOL res 128 1552 R270
WINDOW 0 32 56 VTop 2
WINDOW 3 0 56 VBottom 2
SYMATTR InstName R3
SYMATTR Value 5.6K
SYMBOL pnp 352 2032 M180
SYMATTR InstName Q3
SYMATTR Value 2N3906
SYMBOL res 288 2160 R180
WINDOW 0 31 76 Left 2
WINDOW 3 31 40 Left 2
SYMATTR InstName R7
SYMATTR Value 220K
SYMBOL res 96 2000 R270
WINDOW 0 32 56 VTop 2
WINDOW 3 0 56 VBottom 2
SYMATTR InstName R8
SYMATTR Value 5.6K
SYMBOL cap -48 1840 R0
SYMATTR InstName C5
SYMATTR Value 220pF
SYMBOL cap 640 1504 R0
SYMATTR InstName C6
SYMATTR Value 220pF
SYMBOL cap -384 1968 R90
WINDOW 0 0 32 VBottom 2
WINDOW 3 32 32 VTop 2
SYMATTR InstName C7
SYMATTR Value 7pF
TEXT -1072 -536 Left 1 !.tran 0 1.0m 0.2m 0.00001m\n.IC V(ANT)=1u\n.MEAS TRAN t_var1 V(ANT) WHEN V(ANT) = 0 rise=1\n.MEAS TRAN t_var2 V(ANT) WHEN V(ANT) = 0 rise=2\n.MEAS TRAN f_var PARAM 1/(t_var2-t_var1)
TEXT 168 -360 Left 2 ;ESD protection
TEXT -336 -528 Left 4 ;Oscillator
