Version 4
SHEET 1 3920 3748
WIRE -432 480 -528 480
WIRE -288 480 -352 480
WIRE -256 480 -288 480
WIRE -144 480 -176 480
WIRE 32 480 -144 480
WIRE 800 480 32 480
WIRE -528 544 -528 480
WIRE -704 576 -704 496
WIRE -64 608 -64 560
WIRE -144 640 -144 480
WIRE -96 640 -144 640
WIRE 96 640 -16 640
WIRE -288 672 -288 480
WIRE -96 672 -288 672
WIRE 32 672 32 480
WIRE 32 672 -16 672
WIRE -704 688 -704 656
WIRE -528 688 -528 608
WIRE -80 736 -80 704
WIRE -64 736 -64 704
WIRE -64 736 -80 736
WIRE -48 736 -48 704
WIRE -48 736 -64 736
WIRE -288 752 -288 672
WIRE -288 752 -448 752
WIRE -64 784 -64 736
WIRE -144 864 -144 640
WIRE 48 864 -144 864
WIRE -288 992 -288 944
WIRE -80 992 -288 992
WIRE -288 1104 -288 992
WIRE -80 1104 -80 992
WIRE 336 1104 336 1056
WIRE 624 1104 624 1056
WIRE 560 1152 512 1152
WIRE 336 1216 336 1184
WIRE 512 1216 512 1152
WIRE 512 1216 336 1216
WIRE 624 1232 624 1200
WIRE 800 1232 624 1232
WIRE 336 1264 336 1216
WIRE 624 1280 624 1232
WIRE 1840 1280 1792 1280
WIRE 1872 1280 1840 1280
WIRE 512 1328 512 1216
WIRE 560 1328 512 1328
WIRE -288 1392 -288 1184
WIRE -80 1392 -80 1184
WIRE 1728 1392 1728 1328
WIRE 1840 1392 1840 1280
WIRE 1840 1392 1728 1392
WIRE -448 1440 -448 752
WIRE -352 1440 -448 1440
WIRE 48 1440 48 864
WIRE 48 1440 -16 1440
WIRE 624 1440 624 1376
WIRE -176 1488 -288 1488
WIRE -80 1488 -176 1488
WIRE -880 1552 -880 1504
WIRE 336 1584 336 1360
WIRE -880 1664 -880 1632
WIRE -736 1664 -880 1664
WIRE -880 1696 -880 1664
WIRE -176 1728 -176 1488
WIRE -736 1744 -736 1664
WIRE -736 1744 -816 1744
WIRE -672 1744 -736 1744
WIRE -880 1840 -880 1792
WIRE -736 1840 -880 1840
WIRE -608 1840 -608 1792
WIRE -608 1840 -736 1840
WIRE -176 1872 -176 1808
WIRE -736 1904 -736 1840
FLAG -704 688 0
FLAG -704 496 COM
FLAG -528 688 0
FLAG -64 784 0
FLAG -64 560 COM
FLAG 96 640 OUT
FLAG -880 1504 COM
FLAG -736 1904 0
FLAG -288 944 COM
FLAG 624 1440 0
FLAG 624 1056 COM
FLAG 336 1056 COM
FLAG 336 1584 0
FLAG -176 1872 0
SYMBOL voltage -704 560 R0
WINDOW 123 0 0 Left 0
WINDOW 39 0 0 Left 0
SYMATTR InstName V1
SYMATTR Value 3.3V
SYMBOL ind -448 496 R270
WINDOW 0 32 56 VTop 2
WINDOW 3 5 56 VBottom 2
SYMATTR InstName L1
SYMATTR Value 2mH
SYMATTR SpiceLine Rser=85 Rpar=10Meg Cpar=1.216pF
SYMBOL cap -544 544 R0
SYMATTR InstName C1
SYMATTR Value 10pF
SYMBOL Comparators\\LT1711 -64 656 R0
SYMATTR InstName U7
SYMBOL res -272 496 R270
WINDOW 0 32 56 VTop 2
WINDOW 3 0 56 VBottom 2
SYMATTR InstName R_sense
SYMATTR Value 47
SYMBOL npn -352 1392 R0
SYMATTR InstName Q1
SYMATTR Value 2N3904
SYMBOL npn -16 1392 M0
SYMATTR InstName Q2
SYMATTR Value 2N3904
SYMBOL npn -672 1696 R0
SYMATTR InstName Q3
SYMATTR Value 2N3904
SYMBOL npn -816 1696 M0
SYMATTR InstName Q4
SYMATTR Value 2N3904
SYMBOL res -896 1536 R0
SYMATTR InstName R1
SYMATTR Value 10K
SYMBOL pnp 1872 1328 M180
SYMATTR InstName Q5
SYMATTR Value 2N3906
SYMBOL pnp 1792 1328 R180
SYMATTR InstName Q6
SYMATTR Value 2N3906
SYMBOL pnp 560 1376 M180
SYMATTR InstName Q7
SYMATTR Value 2N3906
SYMBOL npn 560 1104 R0
SYMATTR InstName Q8
SYMATTR Value 2N3904
SYMBOL pnp 272 1360 M180
SYMATTR InstName Q9
SYMATTR Value 2N3906
SYMBOL res 320 1088 R0
SYMATTR InstName R3
SYMATTR Value 1K
SYMBOL res -304 1088 R0
SYMATTR InstName R2
SYMATTR Value 4.7K
SYMBOL res -96 1088 R0
SYMATTR InstName R4
SYMATTR Value 4.7K
SYMBOL res -192 1712 R0
SYMATTR InstName R5
SYMATTR Value 2.2K
TEXT -712 384 Left 2 !.tran 0 1.3m 0.3m 0.00001m
