Version 4
SHEET 1 3920 3748
WIRE -528 480 -528 448
WIRE -528 480 -656 480
WIRE -448 480 -528 480
WIRE -304 480 -368 480
WIRE -32 480 -304 480
WIRE 416 480 48 480
WIRE -656 528 -656 480
WIRE -528 544 -528 480
WIRE -800 576 -800 480
WIRE 128 640 128 576
WIRE 128 640 32 640
WIRE 240 640 128 640
WIRE 32 672 32 640
WIRE -800 688 -800 656
WIRE -800 688 -928 688
WIRE -656 688 -656 608
WIRE -528 688 -528 608
WIRE -928 720 -928 688
WIRE -800 736 -800 688
WIRE 32 784 32 752
WIRE 128 784 32 784
WIRE 32 800 32 784
WIRE 240 800 240 640
WIRE -928 816 -928 784
WIRE -800 848 -800 816
WIRE -304 848 -304 480
WIRE -32 848 -304 848
WIRE 416 848 416 480
WIRE 416 848 304 848
WIRE 32 960 32 896
WIRE 32 960 -400 960
WIRE 240 960 240 896
WIRE 240 960 32 960
WIRE 128 1008 128 784
WIRE 144 1008 128 1008
WIRE -624 1056 -624 992
WIRE -624 1056 -720 1056
WIRE -512 1056 -624 1056
WIRE -720 1088 -720 1056
WIRE -512 1088 -512 1056
WIRE 240 1104 240 1040
WIRE -624 1136 -656 1136
WIRE -576 1136 -624 1136
WIRE 128 1152 128 1008
WIRE 176 1152 128 1152
WIRE 32 1184 -512 1184
WIRE -720 1216 -720 1184
WIRE -624 1216 -624 1136
WIRE -624 1216 -720 1216
WIRE 240 1216 240 1200
WIRE 320 1216 240 1216
WIRE 240 1232 240 1216
WIRE 320 1232 320 1216
WIRE -720 1296 -720 1216
WIRE 128 1312 128 1152
WIRE 240 1344 240 1312
WIRE 320 1344 320 1296
WIRE 320 1344 240 1344
WIRE 416 1344 416 848
WIRE 416 1344 320 1344
WIRE 496 1344 416 1344
WIRE 240 1376 240 1344
WIRE 320 1376 320 1344
WIRE 240 1472 240 1456
WIRE 320 1472 320 1440
WIRE 320 1472 240 1472
WIRE 240 1488 240 1472
WIRE -720 1520 -720 1376
WIRE -624 1520 -720 1520
WIRE -720 1536 -720 1520
WIRE -400 1536 -400 960
WIRE -400 1536 -512 1536
WIRE 128 1536 128 1376
WIRE 176 1536 128 1536
WIRE -624 1584 -624 1520
WIRE -624 1584 -656 1584
WIRE -576 1584 -624 1584
WIRE 240 1632 240 1584
WIRE -720 1680 -720 1632
WIRE -624 1680 -720 1680
WIRE -512 1680 -512 1632
WIRE -512 1680 -624 1680
WIRE 128 1696 128 1536
WIRE 160 1696 128 1696
WIRE -624 1728 -624 1680
WIRE 32 1744 32 1184
WIRE 256 1744 32 1744
WIRE 32 1776 32 1744
WIRE 256 1776 256 1744
WIRE -304 1824 -304 848
WIRE -32 1824 -304 1824
WIRE 416 1824 416 1344
WIRE 416 1824 320 1824
WIRE 32 1904 32 1872
WIRE 128 1904 128 1696
WIRE 128 1904 32 1904
WIRE 32 1920 32 1904
WIRE 32 2032 32 2000
WIRE 128 2032 32 2032
WIRE 256 2032 256 1872
WIRE 256 2032 128 2032
WIRE 128 2080 128 2032
WIRE 752 2096 640 2096
WIRE 928 2096 832 2096
WIRE 1152 2176 1152 2112
WIRE 752 2240 752 2192
WIRE 752 2240 688 2240
WIRE 752 2256 752 2240
WIRE 416 2288 416 1824
WIRE 512 2288 416 2288
WIRE 640 2288 640 2096
WIRE 640 2288 592 2288
WIRE 672 2288 640 2288
WIRE 928 2288 928 2096
WIRE 928 2288 880 2288
WIRE 992 2288 928 2288
WIRE 1152 2288 1152 2240
WIRE 1152 2288 1072 2288
WIRE 1280 2288 1152 2288
WIRE 672 2304 672 2288
WIRE 720 2304 672 2304
WIRE 880 2304 880 2288
WIRE 1152 2304 1152 2288
WIRE -80 2336 -144 2336
WIRE 720 2336 -80 2336
WIRE 720 2368 672 2368
WIRE -304 2384 -304 1824
WIRE 512 2384 -304 2384
WIRE 640 2384 592 2384
WIRE 672 2384 672 2368
WIRE 672 2384 640 2384
WIRE 880 2384 880 2368
WIRE 928 2384 880 2384
WIRE 992 2384 928 2384
WIRE 1152 2384 1152 2368
WIRE 1152 2384 1072 2384
WIRE 1280 2384 1152 2384
WIRE -144 2416 -144 2336
WIRE -80 2432 -80 2336
WIRE 688 2432 688 2240
WIRE 784 2432 784 2416
WIRE 784 2432 688 2432
WIRE 1152 2432 1152 2384
WIRE 752 2464 752 2416
WIRE -144 2544 -144 2496
WIRE -80 2544 -80 2496
WIRE 1152 2544 1152 2496
WIRE 640 2576 640 2384
WIRE 752 2576 640 2576
WIRE 928 2576 928 2384
WIRE 928 2576 832 2576
FLAG -800 848 0
FLAG -800 480 COM
FLAG -528 688 0
FLAG -528 448 ANT
FLAG -656 688 0
FLAG -624 1728 0
FLAG 128 576 COM
FLAG -624 992 COM
FLAG 128 2080 0
FLAG 240 1040 COM
FLAG 240 1632 0
FLAG 496 1344 OUT
FLAG 144 1008 diff1
FLAG 160 1696 diff2
FLAG -928 816 0
FLAG 752 2464 0
FLAG 752 2192 COM
FLAG -80 2544 0
FLAG 1152 2544 0
FLAG 1152 2112 0
FLAG -144 2544 0
SYMBOL voltage -800 720 R0
WINDOW 123 0 0 Left 0
WINDOW 39 0 0 Left 0
SYMATTR InstName V1
SYMATTR Value 3.3V
SYMBOL ind -464 496 R270
WINDOW 0 32 56 VTop 2
WINDOW 3 5 56 VBottom 2
SYMATTR InstName L1
SYMATTR Value 2.624mH
SYMATTR SpiceLine Rser=66 Rpar=10Meg Cpar=1.216pF
SYMBOL cap -544 544 R0
SYMATTR InstName C_ant
SYMATTR Value 8pF
SYMBOL res -672 512 R0
SYMATTR InstName R_loss
SYMATTR Value 1Meg
SYMBOL res 64 464 R90
WINDOW 0 0 56 VBottom 2
WINDOW 3 32 56 VTop 2
SYMATTR InstName R_sense
SYMATTR Value 100
SYMBOL npn -32 800 R0
SYMATTR InstName Q1
SYMATTR Value BC847C
SYMBOL npn 304 800 M0
SYMATTR InstName Q2
SYMATTR Value BC847C
SYMBOL npn -656 1536 M0
SYMATTR InstName Q3
SYMATTR Value BC847C
SYMBOL npn -576 1536 R0
SYMATTR InstName Q4
SYMATTR Value BC847C
SYMBOL pnp 320 1872 R180
SYMATTR InstName Q5
SYMATTR Value BC857C
SYMBOL pnp -32 1872 M180
SYMATTR InstName Q6
SYMATTR Value BC857C
SYMBOL pnp -576 1184 M180
SYMATTR InstName Q7
SYMATTR Value BC857C
SYMBOL pnp -656 1184 R180
SYMATTR InstName Q8
SYMATTR Value BC857C
SYMBOL res -704 1392 R180
WINDOW 0 36 76 Left 2
WINDOW 3 36 40 Left 2
SYMATTR InstName R16
SYMATTR Value 4.7K
SYMBOL res 48 2016 R180
WINDOW 0 36 76 Left 2
WINDOW 3 36 40 Left 2
SYMATTR InstName R18
SYMATTR Value 4.7K
SYMBOL res 48 768 R180
WINDOW 0 36 76 Left 2
WINDOW 3 36 40 Left 2
SYMATTR InstName R19
SYMATTR Value 4.7K
SYMBOL npn 176 1104 R0
SYMATTR InstName Q9
SYMATTR Value BC847C
SYMBOL pnp 176 1584 M180
SYMATTR InstName Q10
SYMATTR Value BC857C
SYMBOL cap 112 1312 R0
SYMATTR InstName C1
SYMATTR Value 10nF
SYMBOL res 256 1328 R180
WINDOW 0 36 76 Left 2
WINDOW 3 36 40 Left 2
SYMATTR InstName R4
SYMATTR Value 100
SYMBOL res 256 1472 R180
WINDOW 0 36 76 Left 2
WINDOW 3 36 40 Left 2
SYMATTR InstName R5
SYMATTR Value 100
SYMBOL res -784 672 R180
WINDOW 0 36 76 Left 2
WINDOW 3 36 40 Left 2
SYMATTR InstName R1
SYMATTR Value 1
SYMBOL cap -944 720 R0
SYMATTR InstName C2
SYMATTR Value 0.1µF
SYMBOL cap 304 1232 R0
SYMATTR InstName C3
SYMATTR Value 10nF
SYMBOL cap 304 1376 R0
SYMATTR InstName C4
SYMATTR Value 10nF
SYMBOL cap -96 2432 R0
SYMATTR InstName C5
SYMATTR Value 1nF
SYMBOL res 496 2304 R270
WINDOW 0 32 56 VTop 2
WINDOW 3 0 56 VBottom 2
SYMATTR InstName R2
SYMATTR Value 10K
SYMBOL res 496 2400 R270
WINDOW 0 32 56 VTop 2
WINDOW 3 0 56 VBottom 2
SYMATTR InstName R3
SYMATTR Value 10K
SYMBOL res 736 2112 R270
WINDOW 0 32 56 VTop 2
WINDOW 3 0 56 VBottom 2
SYMATTR InstName R6
SYMATTR Value 68K
SYMBOL res 736 2592 R270
WINDOW 0 32 56 VTop 2
WINDOW 3 0 56 VBottom 2
SYMATTR InstName R7
SYMATTR Value 68K
SYMBOL res 976 2304 R270
WINDOW 0 32 56 VTop 2
WINDOW 3 0 56 VBottom 2
SYMATTR InstName R8
SYMATTR Value 100
SYMBOL res 976 2400 R270
WINDOW 0 32 56 VTop 2
WINDOW 3 0 56 VBottom 2
SYMATTR InstName R9
SYMATTR Value 100
SYMBOL cap 1136 2432 R0
SYMATTR InstName C6
SYMATTR Value 100pF
SYMBOL cap 1136 2304 R0
SYMATTR InstName C7
SYMATTR Value 100pF
SYMBOL cap 1136 2176 R0
SYMATTR InstName C8
SYMATTR Value 100pF
SYMBOL res 1264 2288 R0
SYMATTR InstName R10
SYMATTR Value 100
SYMBOL Opamps\\LTC6362 784 2336 R0
SYMATTR InstName U2
SYMBOL res -128 2512 R180
WINDOW 0 36 76 Left 2
WINDOW 3 36 40 Left 2
SYMATTR InstName R11
SYMATTR Value 470K
TEXT -808 336 Left 2 !.tran 0 1.5m 1m 0.000001m
TEXT -808 376 Left 2 !.IC V(ANT)=1u
