Version 4
SHEET 1 3920 3748
WIRE -528 480 -528 448
WIRE -528 480 -656 480
WIRE -448 480 -528 480
WIRE -304 480 -368 480
WIRE -32 480 -304 480
WIRE 352 480 48 480
WIRE -656 528 -656 480
WIRE -528 544 -528 480
WIRE -800 560 -800 480
WIRE 128 640 128 576
WIRE 128 640 32 640
WIRE 240 640 128 640
WIRE -800 672 -800 640
WIRE 32 672 32 640
WIRE -656 688 -656 608
WIRE -528 688 -528 608
WIRE 32 784 32 752
WIRE 128 784 32 784
WIRE 32 800 32 784
WIRE 240 800 240 640
WIRE -304 848 -304 480
WIRE -32 848 -304 848
WIRE 352 848 352 480
WIRE 352 848 304 848
WIRE -176 960 -176 928
WIRE 32 960 32 896
WIRE 240 960 240 896
WIRE 240 960 32 960
WIRE 128 1008 128 784
WIRE 144 1008 128 1008
WIRE -176 1072 -176 1040
WIRE -80 1072 -176 1072
WIRE -176 1088 -176 1072
WIRE 32 1088 32 960
WIRE 240 1104 240 1040
WIRE -80 1136 -80 1072
WIRE -80 1136 -112 1136
WIRE -32 1136 -80 1136
WIRE 128 1152 128 1008
WIRE 176 1152 128 1152
WIRE -176 1232 -176 1184
WIRE -80 1232 -176 1232
WIRE 32 1232 32 1184
WIRE 32 1232 -80 1232
WIRE 240 1232 240 1200
WIRE -80 1280 -80 1232
WIRE 128 1312 128 1152
WIRE 240 1344 240 1312
WIRE 352 1344 352 848
WIRE 352 1344 240 1344
WIRE 432 1344 352 1344
WIRE 240 1376 240 1344
WIRE -80 1424 -80 1360
WIRE -80 1424 -176 1424
WIRE 32 1424 -80 1424
WIRE -176 1456 -176 1424
WIRE 32 1456 32 1424
WIRE 240 1488 240 1456
WIRE -80 1504 -112 1504
WIRE -32 1504 -80 1504
WIRE 128 1536 128 1376
WIRE 176 1536 128 1536
WIRE -176 1584 -176 1552
WIRE -80 1584 -80 1504
WIRE -80 1584 -176 1584
WIRE -176 1616 -176 1584
WIRE 240 1632 240 1584
WIRE 128 1696 128 1536
WIRE 160 1696 128 1696
WIRE -176 1728 -176 1696
WIRE 32 1744 32 1552
WIRE 256 1744 32 1744
WIRE 32 1776 32 1744
WIRE 256 1776 256 1744
WIRE -304 1824 -304 848
WIRE -32 1824 -304 1824
WIRE 352 1824 352 1344
WIRE 352 1824 320 1824
WIRE 32 1904 32 1872
WIRE 128 1904 128 1696
WIRE 128 1904 32 1904
WIRE 32 1920 32 1904
WIRE 32 2032 32 2000
WIRE 128 2032 32 2032
WIRE 256 2032 256 1872
WIRE 256 2032 128 2032
WIRE 128 2080 128 2032
FLAG -800 672 0
FLAG -800 480 COM
FLAG -528 688 0
FLAG -528 448 ANT
FLAG -656 688 0
FLAG -80 1280 0
FLAG 128 576 COM
FLAG -176 928 COM
FLAG -80 1360 COM
FLAG 128 2080 0
FLAG -176 1728 0
FLAG 240 1040 COM
FLAG 240 1632 0
FLAG 432 1344 OUT
FLAG 144 1008 diff1
FLAG 160 1696 diff2
SYMBOL voltage -800 544 R0
WINDOW 123 0 0 Left 0
WINDOW 39 0 0 Left 0
SYMATTR InstName V1
SYMATTR Value 3.3V
SYMBOL ind -464 496 R270
WINDOW 0 32 56 VTop 2
WINDOW 3 5 56 VBottom 2
SYMATTR InstName L1
SYMATTR Value 2.624mH
SYMATTR SpiceLine Rser=66 Rpar=10Meg Cpar=1.216pF
SYMBOL cap -544 544 R0
SYMATTR InstName C_ant
SYMATTR Value 8pF
SYMBOL res -672 512 R0
SYMATTR InstName R_loss
SYMATTR Value 2.4Meg
SYMBOL res 64 464 R90
WINDOW 0 0 56 VBottom 2
WINDOW 3 32 56 VTop 2
SYMATTR InstName R_sense
SYMATTR Value 47
SYMBOL npn -32 800 R0
SYMATTR InstName Q1
SYMATTR Value BC847C
SYMBOL npn 304 800 M0
SYMATTR InstName Q2
SYMATTR Value BC847C
SYMBOL npn -112 1088 M0
SYMATTR InstName Q3
SYMATTR Value BC847C
SYMBOL npn -32 1088 R0
SYMATTR InstName Q4
SYMATTR Value BC847C
SYMBOL res -160 1056 R180
WINDOW 0 36 76 Left 2
WINDOW 3 36 40 Left 2
SYMATTR InstName R14
SYMATTR Value 1000
SYMBOL pnp 320 1872 R180
SYMATTR InstName Q5
SYMATTR Value BC857C
SYMBOL pnp -32 1872 M180
SYMATTR InstName Q6
SYMATTR Value BC857C
SYMBOL pnp -32 1552 M180
SYMATTR InstName Q7
SYMATTR Value BC857C
SYMBOL pnp -112 1552 R180
SYMATTR InstName Q8
SYMATTR Value BC857C
SYMBOL res -160 1712 R180
WINDOW 0 36 76 Left 2
WINDOW 3 36 40 Left 2
SYMATTR InstName R16
SYMATTR Value 1000
SYMBOL res 48 2016 R180
WINDOW 0 36 76 Left 2
WINDOW 3 36 40 Left 2
SYMATTR InstName R18
SYMATTR Value 820
SYMBOL res 48 768 R180
WINDOW 0 36 76 Left 2
WINDOW 3 36 40 Left 2
SYMATTR InstName R19
SYMATTR Value 820
SYMBOL npn 176 1104 R0
SYMATTR InstName Q9
SYMATTR Value BC847C
SYMBOL pnp 176 1584 M180
SYMATTR InstName Q10
SYMATTR Value BC857C
SYMBOL cap 112 1312 R0
SYMATTR InstName C1
SYMATTR Value 10nF
SYMBOL res 256 1328 R180
WINDOW 0 36 76 Left 2
WINDOW 3 36 40 Left 2
SYMATTR InstName R4
SYMATTR Value 12
SYMBOL res 256 1472 R180
WINDOW 0 36 76 Left 2
WINDOW 3 36 40 Left 2
SYMATTR InstName R5
SYMATTR Value 12
TEXT -808 336 Left 2 !.tran 0 0.8m 0.3m 0.000001m
TEXT -808 376 Left 2 !.IC V(ANT)=1u
