Version 4
SHEET 1 3920 3748
WIRE -592 496 -592 448
WIRE -416 496 -592 496
WIRE -240 496 -416 496
WIRE -128 496 -240 496
WIRE 16 496 16 432
WIRE 16 496 -48 496
WIRE 96 496 16 496
WIRE 128 496 96 496
WIRE 240 496 208 496
WIRE 304 496 304 432
WIRE 304 496 240 496
WIRE 416 496 304 496
WIRE -592 544 -592 496
WIRE -416 544 -416 496
WIRE -240 560 -240 496
WIRE 320 624 320 576
WIRE 240 656 240 496
WIRE 288 656 240 656
WIRE 480 656 368 656
WIRE 96 688 96 496
WIRE 288 688 96 688
WIRE 416 688 416 496
WIRE 416 688 368 688
WIRE 480 688 416 688
WIRE -592 704 -592 608
WIRE -416 704 -416 608
WIRE -240 704 -240 640
WIRE 304 752 304 720
WIRE 320 752 320 720
WIRE 320 752 304 752
WIRE 336 752 336 720
WIRE 336 752 320 752
WIRE 320 800 320 752
WIRE -544 832 -544 784
WIRE -544 832 -640 832
WIRE -240 832 -240 784
WIRE -240 832 -352 832
WIRE -544 848 -544 832
WIRE -352 864 -352 832
WIRE -240 864 -240 832
WIRE -544 944 -544 928
WIRE -640 960 -640 832
WIRE -352 976 -352 928
WIRE -240 976 -240 928
WIRE -240 976 -352 976
WIRE -176 976 -240 976
WIRE -352 1024 -352 976
WIRE -240 1024 -240 976
WIRE -640 1056 -640 1024
WIRE -544 1056 -544 1024
WIRE -352 1136 -352 1088
WIRE -240 1136 -240 1088
WIRE -240 1136 -352 1136
WIRE -240 1184 -240 1136
WIRE 496 1456 432 1456
WIRE 800 1456 576 1456
WIRE 656 1504 656 1488
WIRE -752 1552 -816 1552
WIRE -608 1552 -672 1552
WIRE -464 1552 -544 1552
WIRE -304 1552 -384 1552
WIRE -224 1552 -304 1552
WIRE -144 1552 -224 1552
WIRE 0 1552 -80 1552
WIRE 128 1552 80 1552
WIRE 320 1552 128 1552
WIRE 432 1552 432 1456
WIRE 432 1552 400 1552
WIRE 544 1552 432 1552
WIRE 800 1552 800 1456
WIRE 800 1552 768 1552
WIRE 1040 1552 800 1552
WIRE 1296 1552 1040 1552
WIRE 1040 1568 1040 1552
WIRE 544 1600 304 1600
WIRE 128 1616 128 1552
WIRE -224 1632 -224 1552
WIRE -304 1648 -304 1552
WIRE 544 1648 512 1648
WIRE 800 1648 768 1648
WIRE 1040 1648 800 1648
WIRE 1296 1648 1040 1648
WIRE 656 1744 656 1696
WIRE -304 1760 -304 1712
WIRE -224 1760 -224 1712
WIRE -224 1760 -304 1760
WIRE -224 1808 -224 1760
WIRE 128 1840 128 1696
WIRE 304 1840 304 1600
WIRE 304 1840 128 1840
WIRE 368 1840 304 1840
WIRE 512 1840 512 1648
WIRE 512 1840 448 1840
WIRE 608 1840 512 1840
WIRE 800 1840 800 1648
WIRE 800 1840 688 1840
WIRE -432 1936 -576 1936
WIRE 304 1952 304 1840
WIRE 304 1952 240 1952
WIRE -432 1968 -432 1936
WIRE -432 2064 -432 2048
WIRE -320 2064 -432 2064
WIRE -256 2064 -320 2064
WIRE -432 2096 -432 2064
WIRE -320 2112 -320 2064
WIRE -432 2208 -432 2176
WIRE -320 2208 -320 2176
WIRE -320 2208 -432 2208
WIRE -432 2256 -432 2208
FLAG -544 1056 0
FLAG -544 784 COM
FLAG -240 1184 0
FLAG -240 784 COM
FLAG -176 976 ESD1
FLAG -592 448 ANT
FLAG -592 704 0
FLAG -416 704 0
FLAG -240 704 0
FLAG 16 432 ESD1
FLAG 320 800 0
FLAG 320 576 COM
FLAG 480 656 OUTP
FLAG -640 1056 0
FLAG 656 1744 0
FLAG 1296 1552 AOUTN
FLAG 1296 1648 AOUTP
FLAG -224 1808 0
FLAG -256 2064 VREF
FLAG -432 2256 0
FLAG 240 1952 VREF
FLAG -816 1552 OUTD
FLAG 304 432 DRIVE
FLAG -576 1936 COM
FLAG 656 1488 COM
FLAG 480 688 OUTN
SYMBOL voltage -544 928 R0
WINDOW 123 0 0 Left 0
WINDOW 39 0 0 Left 0
SYMATTR InstName V1
SYMATTR Value 3.3V
SYMBOL diode -224 1088 R180
WINDOW 0 24 64 Left 2
WINDOW 3 24 0 Left 2
SYMATTR InstName D1
SYMBOL diode -224 928 R180
WINDOW 0 24 64 Left 2
WINDOW 3 24 0 Left 2
SYMATTR InstName D2
SYMBOL cap -368 1024 R0
SYMATTR InstName C7
SYMATTR Value 0.5pF
SYMBOL cap -368 864 R0
SYMATTR InstName C10
SYMATTR Value 0.5pF
SYMBOL ind -144 512 R270
WINDOW 0 32 56 VTop 2
WINDOW 3 5 56 VBottom 2
SYMATTR InstName L1
SYMATTR Value 2.4mH
SYMATTR SpiceLine Rser=85 Rpar=10Meg Cpar=1.216pF
SYMBOL cap -432 544 R0
SYMATTR InstName C_ant
SYMATTR Value 8pF
SYMBOL cap -608 544 R0
SYMATTR InstName C_hand
SYMATTR Value 0.0001pF
SYMBOL res -256 544 R0
SYMATTR InstName R_loss
SYMATTR Value 2400K
SYMBOL Comparators\\LT1711 320 672 R0
SYMATTR InstName U7
SYMBOL res 112 512 R270
WINDOW 0 32 56 VTop 2
WINDOW 3 0 56 VBottom 2
SYMATTR InstName R47
SYMATTR Value 15
SYMBOL res -560 832 R0
SYMATTR InstName R1
SYMATTR Value 1
SYMBOL cap -656 960 R0
SYMATTR InstName C1
SYMATTR Value 10µF
SYMBOL res 1056 1664 R180
WINDOW 0 36 76 Left 2
WINDOW 3 36 40 Left 2
SYMATTR InstName R4
SYMATTR Value 100
SYMBOL cap -544 1536 R90
WINDOW 0 0 32 VBottom 2
WINDOW 3 32 32 VTop 2
SYMATTR InstName C2
SYMATTR Value 82pF
SYMBOL ind -480 1568 R270
WINDOW 0 32 56 VTop 2
WINDOW 3 5 56 VBottom 2
SYMATTR InstName L2
SYMATTR Value 270µH
SYMATTR SpiceLine Rser=5
SYMBOL cap -80 1536 R90
WINDOW 0 0 32 VBottom 2
WINDOW 3 32 32 VTop 2
SYMATTR InstName C3
SYMATTR Value 82pF
SYMBOL ind -16 1568 R270
WINDOW 0 32 56 VTop 2
WINDOW 3 5 56 VBottom 2
SYMATTR InstName L3
SYMATTR Value 270µH
SYMATTR SpiceLine Rser=5
SYMBOL cap -288 1712 R180
WINDOW 0 24 56 Left 2
WINDOW 3 24 8 Left 2
SYMATTR InstName C4
SYMATTR Value 560pF
SYMBOL ind -240 1616 R0
SYMATTR InstName L4
SYMATTR Value 39µH
SYMATTR SpiceLine Rser=1
SYMBOL res -656 1536 R90
WINDOW 0 0 56 VBottom 2
WINDOW 3 32 56 VTop 2
SYMATTR InstName R5
SYMATTR Value 1.8K
SYMBOL res 112 1600 R0
SYMATTR InstName R6
SYMATTR Value 1K
SYMBOL res -448 1952 R0
SYMATTR InstName R7
SYMATTR Value 1K
SYMBOL res -448 2080 R0
SYMATTR InstName R8
SYMATTR Value 1K
SYMBOL cap -336 2112 R0
SYMATTR InstName C5
SYMATTR Value 0.1µF
SYMBOL res 416 1536 R90
WINDOW 0 0 56 VBottom 2
WINDOW 3 32 56 VTop 2
SYMATTR InstName R9
SYMATTR Value 1K
SYMBOL res 592 1440 R90
WINDOW 0 0 56 VBottom 2
WINDOW 3 32 56 VTop 2
SYMATTR InstName R14
SYMATTR Value 1K
SYMBOL res 704 1824 R90
WINDOW 0 0 56 VBottom 2
WINDOW 3 32 56 VTop 2
SYMATTR InstName R15
SYMATTR Value 1K
SYMBOL res 464 1824 R90
WINDOW 0 0 56 VBottom 2
WINDOW 3 32 56 VTop 2
SYMATTR InstName R16
SYMATTR Value 1K
SYMBOL ad8137 672 1600 R0
SYMATTR InstName U1
TEXT -544 368 Left 2 !.tran 0 1.3m 0.3m 0.00001m
TEXT -552 432 Left 2 !.IC V(ANT)=1u
