Version 4
SHEET 1 3920 3748
WIRE -592 496 -592 448
WIRE -416 496 -592 496
WIRE -240 496 -416 496
WIRE -128 496 -240 496
WIRE 16 496 16 432
WIRE 16 496 -48 496
WIRE 96 496 16 496
WIRE 128 496 96 496
WIRE 240 496 208 496
WIRE 1488 496 240 496
WIRE -592 544 -592 496
WIRE -416 544 -416 496
WIRE -240 560 -240 496
WIRE 528 608 480 608
WIRE 912 608 608 608
WIRE 320 624 320 576
WIRE 240 656 240 496
WIRE 288 656 240 656
WIRE 480 656 480 608
WIRE 480 656 368 656
WIRE 96 688 96 496
WIRE 288 688 96 688
WIRE 480 688 368 688
WIRE -592 704 -592 608
WIRE -416 704 -416 608
WIRE -240 704 -240 640
WIRE 480 736 480 688
WIRE 528 736 480 736
WIRE 736 736 736 720
WIRE 736 736 608 736
WIRE 912 736 736 736
WIRE 304 752 304 720
WIRE 320 752 320 720
WIRE 320 752 304 752
WIRE 336 752 336 720
WIRE 336 752 320 752
WIRE 320 800 320 752
WIRE 784 800 688 800
WIRE 784 816 784 800
WIRE -544 832 -544 784
WIRE -544 832 -640 832
WIRE -240 832 -240 784
WIRE -240 832 -352 832
WIRE 480 832 480 736
WIRE 608 832 480 832
WIRE -544 848 -544 832
WIRE -352 864 -352 832
WIRE -240 864 -240 832
WIRE 688 864 688 800
WIRE 688 864 384 864
WIRE 1264 896 1264 848
WIRE 784 912 784 896
WIRE 688 928 688 864
WIRE -544 944 -544 928
WIRE 1200 944 1152 944
WIRE -640 960 -640 832
WIRE -352 976 -352 928
WIRE -240 976 -240 928
WIRE -240 976 -352 976
WIRE -176 976 -240 976
WIRE 96 976 96 880
WIRE 448 976 96 976
WIRE 544 976 528 976
WIRE 16 1008 16 816
WIRE -352 1024 -352 976
WIRE -240 1024 -240 976
WIRE 688 1024 688 992
WIRE 784 1024 784 992
WIRE 384 1040 384 864
WIRE -640 1056 -640 1024
WIRE -544 1056 -544 1024
WIRE 1264 1056 1264 992
WIRE 1488 1056 1488 496
WIRE 1488 1056 1264 1056
WIRE 96 1088 96 976
WIRE 272 1088 96 1088
WIRE 544 1088 544 976
WIRE 544 1088 496 1088
WIRE 608 1104 608 832
WIRE 1152 1104 1152 944
WIRE 1152 1104 608 1104
WIRE 1264 1120 1264 1056
WIRE -352 1136 -352 1088
WIRE -240 1136 -240 1088
WIRE -240 1136 -352 1136
WIRE 16 1136 16 1088
WIRE 272 1136 16 1136
WIRE 1152 1168 1152 1104
WIRE 1200 1168 1152 1168
WIRE -240 1184 -240 1136
WIRE 16 1184 16 1136
WIRE 240 1184 240 928
WIRE 272 1184 240 1184
WIRE 544 1184 496 1184
WIRE 928 1184 544 1184
WIRE 1264 1264 1264 1216
WIRE 384 1280 384 1232
WIRE 16 1312 16 1264
WIRE 240 1344 240 1184
WIRE 448 1344 240 1344
WIRE 544 1344 544 1184
WIRE 544 1344 528 1344
WIRE 1264 1408 1264 1360
WIRE 1200 1456 1152 1456
WIRE 928 1568 928 1184
WIRE 1152 1568 1152 1456
WIRE 1152 1568 928 1568
WIRE 1264 1568 1264 1504
WIRE 1488 1568 1264 1568
WIRE 1264 1632 1264 1568
WIRE 1152 1680 1152 1568
WIRE 1200 1680 1152 1680
WIRE 1264 1776 1264 1728
FLAG -544 1056 0
FLAG -544 784 COM
FLAG -240 1184 0
FLAG -240 784 COM
FLAG -176 976 ESD1
FLAG -592 448 ANT
FLAG -592 704 0
FLAG -416 704 0
FLAG -240 704 0
FLAG 16 432 ESD1
FLAG 320 800 0
FLAG 320 576 COM
FLAG 912 736 OUTN
FLAG -640 1056 0
FLAG 384 1280 0
FLAG 16 816 COM
FLAG 16 1312 0
FLAG 784 1024 0
FLAG 688 1024 0
FLAG 1264 1264 0
FLAG 1264 848 COM
FLAG 1264 1776 0
FLAG 1264 1360 COM
FLAG 912 608 OUTP
SYMBOL voltage -544 928 R0
WINDOW 123 0 0 Left 0
WINDOW 39 0 0 Left 0
SYMATTR InstName V1
SYMATTR Value 3.3V
SYMBOL diode -224 1088 R180
WINDOW 0 24 64 Left 2
WINDOW 3 24 0 Left 2
SYMATTR InstName D1
SYMBOL diode -224 928 R180
WINDOW 0 24 64 Left 2
WINDOW 3 24 0 Left 2
SYMATTR InstName D2
SYMBOL cap -368 1024 R0
SYMATTR InstName C7
SYMATTR Value 0.5pF
SYMBOL cap -368 864 R0
SYMATTR InstName C10
SYMATTR Value 0.5pF
SYMBOL ind -144 512 R270
WINDOW 0 32 56 VTop 2
WINDOW 3 5 56 VBottom 2
SYMATTR InstName L1
SYMATTR Value 2.4mH
SYMATTR SpiceLine Rser=85 Rpar=10Meg Cpar=1.216pF
SYMBOL cap -432 544 R0
SYMATTR InstName C_ant
SYMATTR Value 8pF
SYMBOL cap -608 544 R0
SYMATTR InstName C_hand
SYMATTR Value 0.0001pF
SYMBOL res -256 544 R0
SYMATTR InstName R_loss
SYMATTR Value 12400K
SYMBOL Comparators\\LT1711 320 672 R0
SYMATTR InstName U7
SYMBOL res 112 512 R270
WINDOW 0 32 56 VTop 2
WINDOW 3 0 56 VBottom 2
SYMATTR InstName R47
SYMATTR Value 22
SYMBOL res -560 832 R0
SYMATTR InstName R1
SYMATTR Value 1
SYMBOL cap -656 960 R0
SYMATTR InstName C1
SYMATTR Value 1µF
SYMBOL res 0 992 R0
SYMATTR InstName R2
SYMATTR Value 10K
SYMBOL res 0 1168 R0
SYMATTR InstName R3
SYMATTR Value 10K
SYMBOL ad8137 400 1136 R0
SYMATTR InstName U2
SYMBOL voltage 784 896 R0
WINDOW 123 0 0 Left 0
WINDOW 39 0 0 Left 0
SYMATTR InstName V2
SYMATTR Value 3.3V
SYMBOL res 768 800 R0
SYMATTR InstName R5
SYMATTR Value 1
SYMBOL cap 672 928 R0
SYMATTR InstName C2
SYMATTR Value 1µF
SYMBOL res 80 784 R0
SYMATTR InstName R4
SYMATTR Value 2.2K
SYMBOL res 224 832 R0
SYMATTR InstName R6
SYMATTR Value 2.2K
SYMBOL res 544 960 R90
WINDOW 0 0 56 VBottom 2
WINDOW 3 32 56 VTop 2
SYMATTR InstName R7
SYMATTR Value 2.2K
SYMBOL res 544 1328 R90
WINDOW 0 0 56 VBottom 2
WINDOW 3 32 56 VTop 2
SYMATTR InstName R8
SYMATTR Value 2.2K
SYMBOL npn 1200 896 R0
SYMATTR InstName Q1
SYMATTR Value 2N3904
SYMBOL pnp 1200 1216 M180
SYMATTR InstName Q2
SYMATTR Value 2N3906
SYMBOL npn 1200 1408 R0
SYMATTR InstName Q3
SYMATTR Value 2N3904
SYMBOL pnp 1200 1728 M180
SYMATTR InstName Q4
SYMATTR Value 2N3906
SYMBOL res 624 592 R90
WINDOW 0 0 56 VBottom 2
WINDOW 3 32 56 VTop 2
SYMATTR InstName R9
SYMATTR Value 100
SYMBOL res 624 720 R90
WINDOW 0 0 56 VBottom 2
WINDOW 3 32 56 VTop 2
SYMATTR InstName R10
SYMATTR Value 100
SYMBOL res 720 624 R0
SYMATTR InstName R11
SYMATTR Value 100
TEXT -544 368 Left 2 !.tran 0 3.5m 1.5m 0.0001m
TEXT -552 432 Left 2 !.IC V(ANT)=1u
