Version 4
SHEET 1 3920 3748
WIRE -592 496 -592 448
WIRE -416 496 -592 496
WIRE -240 496 -416 496
WIRE -128 496 -240 496
WIRE 16 496 16 432
WIRE 16 496 -48 496
WIRE 80 496 16 496
WIRE 128 496 80 496
WIRE 240 496 208 496
WIRE 384 496 240 496
WIRE -592 544 -592 496
WIRE -416 544 -416 496
WIRE -240 560 -240 496
WIRE 320 640 320 592
WIRE 80 656 80 496
WIRE 288 656 80 656
WIRE 384 672 384 496
WIRE 384 672 352 672
WIRE 464 672 384 672
WIRE 720 672 464 672
WIRE 240 688 240 496
WIRE 288 688 240 688
WIRE -592 704 -592 608
WIRE -416 704 -416 608
WIRE -240 704 -240 640
WIRE 320 752 320 704
WIRE -544 832 -544 784
WIRE -544 832 -640 832
WIRE -240 832 -240 784
WIRE -240 832 -352 832
WIRE 576 832 576 784
WIRE -544 848 -544 832
WIRE -352 864 -352 832
WIRE -240 864 -240 832
WIRE 160 896 160 832
WIRE 624 928 624 880
WIRE 720 928 720 880
WIRE -544 944 -544 928
WIRE -640 960 -640 832
WIRE -352 976 -352 928
WIRE -240 976 -240 928
WIRE -240 976 -352 976
WIRE -176 976 -240 976
WIRE 464 992 464 672
WIRE 544 992 464 992
WIRE 1008 992 800 992
WIRE 1152 992 1008 992
WIRE 1264 992 1216 992
WIRE 1440 992 1344 992
WIRE 1536 992 1440 992
WIRE 1776 992 1536 992
WIRE 1904 992 1840 992
WIRE -352 1024 -352 976
WIRE -240 1024 -240 976
WIRE 160 1024 160 976
WIRE 544 1024 160 1024
WIRE 864 1024 800 1024
WIRE 1536 1040 1536 992
WIRE -640 1056 -640 1024
WIRE -544 1056 -544 1024
WIRE 1008 1056 1008 992
WIRE 1440 1056 1440 992
WIRE 160 1072 160 1024
WIRE 544 1072 480 1072
WIRE 544 1120 480 1120
WIRE -352 1136 -352 1088
WIRE -240 1136 -240 1088
WIRE -240 1136 -352 1136
WIRE -240 1184 -240 1136
WIRE 720 1200 720 1152
WIRE 864 1200 864 1024
WIRE 1008 1200 1008 1136
WIRE 1008 1200 864 1200
WIRE 1152 1200 1008 1200
WIRE 1264 1200 1216 1200
WIRE 1440 1200 1440 1120
WIRE 1440 1200 1344 1200
WIRE 1536 1200 1536 1120
WIRE 1536 1200 1440 1200
WIRE 1680 1200 1680 1136
WIRE 1680 1200 1536 1200
WIRE 1776 1200 1680 1200
WIRE 1904 1200 1840 1200
WIRE 160 1216 160 1152
FLAG -544 1056 0
FLAG -544 784 COM
FLAG -240 1184 0
FLAG -240 784 COM
FLAG -176 976 ESD1
FLAG -592 448 ANT
FLAG -592 704 0
FLAG -416 704 0
FLAG -240 704 0
FLAG 16 432 ESD1
FLAG -640 1056 0
FLAG 320 592 COM
FLAG 320 752 0
FLAG 720 672 OUT
FLAG 576 832 0
FLAG 624 880 COM
FLAG 720 880 COM
FLAG 480 1072 COM
FLAG 480 1120 COM
FLAG 720 1200 0
FLAG 160 832 COM
FLAG 160 1216 0
FLAG 1904 992 OUTP
FLAG 1904 1200 OUTN
SYMBOL voltage -544 928 R0
WINDOW 123 0 0 Left 0
WINDOW 39 0 0 Left 0
SYMATTR InstName V1
SYMATTR Value 3.3V
SYMBOL diode -224 1088 R180
WINDOW 0 24 64 Left 2
WINDOW 3 24 0 Left 2
SYMATTR InstName D1
SYMBOL diode -224 928 R180
WINDOW 0 24 64 Left 2
WINDOW 3 24 0 Left 2
SYMATTR InstName D2
SYMBOL cap -368 1024 R0
SYMATTR InstName C7
SYMATTR Value 1pF
SYMBOL cap -368 864 R0
SYMATTR InstName C10
SYMATTR Value 1pF
SYMBOL ind -144 512 R270
WINDOW 0 32 56 VTop 2
WINDOW 3 5 56 VBottom 2
SYMATTR InstName L1
SYMATTR Value 2.4mH
SYMATTR SpiceLine Rser=85 Rpar=10Meg Cpar=1.216pF
SYMBOL cap -432 544 R0
SYMATTR InstName C_ant
SYMATTR Value 10pF
SYMBOL cap -608 544 R0
SYMATTR InstName C_hand
SYMATTR Value 0.0001pF
SYMBOL res -256 544 R0
SYMATTR InstName R_loss
SYMATTR Value 2400K
SYMBOL res 112 512 R270
WINDOW 0 32 56 VTop 2
WINDOW 3 0 56 VBottom 2
SYMATTR InstName R47
SYMATTR Value 22
SYMBOL res -560 832 R0
SYMATTR InstName R1
SYMATTR Value 1
SYMBOL cap -656 960 R0
SYMATTR InstName C1
SYMATTR Value 10µF
SYMBOL Comparators\\LTC6752 320 608 R0
SYMATTR InstName U1
SYMBOL res 560 688 R0
SYMATTR InstName R2
SYMATTR Value 100
SYMBOL Comparators\\LTC6754 672 1040 R0
SYMATTR InstName U2
SYMBOL res 144 1056 R0
SYMATTR InstName R3
SYMATTR Value 100
SYMBOL res 144 880 R0
SYMATTR InstName R4
SYMATTR Value 100
SYMBOL res 992 1040 R0
SYMATTR InstName R5
SYMATTR Value 100
SYMBOL cap 1216 976 R90
WINDOW 0 0 32 VBottom 2
WINDOW 3 32 32 VTop 2
SYMATTR InstName C2
SYMATTR Value 820pF
SYMBOL ind 1248 1008 R270
WINDOW 0 32 56 VTop 2
WINDOW 3 5 56 VBottom 2
SYMATTR InstName L2
SYMATTR Value 33µH
SYMATTR SpiceLine Rser=5
SYMBOL cap 1456 1120 R180
WINDOW 0 24 56 Left 2
WINDOW 3 24 8 Left 2
SYMATTR InstName C3
SYMATTR Value 3.3nF
SYMBOL ind 1520 1024 R0
SYMATTR InstName L3
SYMATTR Value 8.2µH
SYMATTR SpiceLine Rser=3
SYMBOL cap 1216 1184 R90
WINDOW 0 0 32 VBottom 2
WINDOW 3 32 32 VTop 2
SYMATTR InstName C4
SYMATTR Value 820pF
SYMBOL ind 1248 1216 R270
WINDOW 0 32 56 VTop 2
WINDOW 3 5 56 VBottom 2
SYMATTR InstName L4
SYMATTR Value 33µH
SYMATTR SpiceLine Rser=5
SYMBOL cap 1840 976 R90
WINDOW 0 0 32 VBottom 2
WINDOW 3 32 32 VTop 2
SYMATTR InstName C5
SYMATTR Value 0.1µF
SYMBOL cap 1840 1184 R90
WINDOW 0 0 32 VBottom 2
WINDOW 3 32 32 VTop 2
SYMATTR InstName C6
SYMATTR Value 0.1µF
SYMBOL res 1664 1040 R0
SYMATTR InstName R6
SYMATTR Value 1000
TEXT -544 368 Left 2 !.tran 0 5.2m 0.2m 0.00001m
TEXT -552 432 Left 2 !.IC V(ANT)=1
