Version 4
SHEET 1 3920 3748
WIRE -704 496 -704 448
WIRE -528 496 -704 496
WIRE -416 496 -528 496
WIRE -272 496 -416 496
WIRE -160 496 -272 496
WIRE -80 496 -160 496
WIRE 0 496 -80 496
WIRE 144 496 144 432
WIRE 144 496 80 496
WIRE 224 496 144 496
WIRE 256 496 224 496
WIRE 368 496 336 496
WIRE 544 496 368 496
WIRE -704 544 -704 496
WIRE -528 544 -528 496
WIRE -416 560 -416 496
WIRE -272 560 -272 496
WIRE -160 560 -160 496
WIRE 752 608 576 608
WIRE 944 608 912 608
WIRE 448 624 448 576
WIRE 912 640 912 608
WIRE 368 656 368 496
WIRE 416 656 368 656
WIRE 576 656 576 608
WIRE 576 656 496 656
WIRE 608 656 576 656
WIRE 224 688 224 496
WIRE 416 688 224 688
WIRE 544 688 544 496
WIRE 544 688 496 688
WIRE -704 704 -704 608
WIRE -528 704 -528 608
WIRE -416 704 -416 640
WIRE -272 704 -272 624
WIRE -160 704 -160 640
WIRE 1216 704 1168 704
WIRE 1216 736 1168 736
WIRE 432 752 432 720
WIRE 448 752 448 720
WIRE 448 752 432 752
WIRE 464 752 464 720
WIRE 464 752 448 752
WIRE 752 752 752 608
WIRE 944 752 752 752
WIRE 1216 768 1168 768
WIRE 448 800 448 752
WIRE 1216 800 1168 800
WIRE -80 832 -80 496
WIRE -960 848 -960 800
WIRE -960 848 -1056 848
WIRE -656 848 -656 800
WIRE -656 848 -768 848
WIRE -960 864 -960 848
WIRE -768 880 -768 848
WIRE -656 880 -656 848
WIRE -80 944 -80 896
WIRE -80 944 -240 944
WIRE 944 944 912 944
WIRE -960 960 -960 944
WIRE -1056 976 -1056 848
WIRE 192 976 192 928
WIRE 912 976 912 944
WIRE -768 992 -768 944
WIRE -656 992 -656 944
WIRE -656 992 -768 992
WIRE -592 992 -656 992
WIRE -80 992 -80 944
WIRE 288 1024 256 1024
WIRE -768 1040 -768 992
WIRE -656 1040 -656 992
WIRE 1216 1040 1168 1040
WIRE -240 1056 -240 944
WIRE 432 1056 432 1008
WIRE -1056 1072 -1056 1040
WIRE -960 1072 -960 1040
WIRE 1216 1072 1168 1072
WIRE 944 1088 608 1088
WIRE -80 1104 -80 1056
WIRE 0 1104 -80 1104
WIRE 192 1104 192 1072
WIRE 192 1104 80 1104
WIRE 288 1104 288 1024
WIRE 400 1104 288 1104
WIRE 1216 1104 1168 1104
WIRE 192 1136 192 1104
WIRE 1216 1136 1168 1136
WIRE -768 1152 -768 1104
WIRE -656 1152 -656 1104
WIRE -656 1152 -768 1152
WIRE -80 1152 -80 1104
WIRE 608 1168 608 1088
WIRE 288 1184 288 1104
WIRE 288 1184 256 1184
WIRE -656 1200 -656 1152
WIRE 16 1264 16 1216
WIRE 432 1264 432 1152
WIRE 192 1280 192 1232
WIRE 608 1296 608 1248
WIRE -608 1312 -608 1264
WIRE -240 1360 -240 1136
WIRE -80 1360 -80 1216
WIRE -80 1360 -240 1360
WIRE 16 1360 16 1344
WIRE 16 1360 -80 1360
WIRE 144 1360 16 1360
WIRE -80 1392 -80 1360
WIRE 16 1392 16 1360
WIRE 432 1408 432 1344
WIRE 144 1424 144 1360
WIRE -608 1472 -608 1376
WIRE -80 1504 -80 1456
WIRE 16 1504 16 1472
FLAG -960 1072 0
FLAG -960 800 COM
FLAG -656 1200 0
FLAG -656 800 COM
FLAG -592 992 ESD1
FLAG -704 448 ANT
FLAG -704 704 0
FLAG -528 704 0
FLAG -416 704 0
FLAG 144 432 ESD1
FLAG 448 800 0
FLAG 448 576 COM
FLAG 608 656 OUT
FLAG -1056 1072 0
FLAG -272 704 0
FLAG 912 640 0
FLAG 1216 704 OSC2
FLAG 1216 736 OSC4
FLAG 1216 768 OSC8
FLAG 1216 800 OSC16
FLAG 608 1296 0
FLAG 912 976 0
FLAG 1216 1040 REF2
FLAG 1216 1072 REF4
FLAG 1216 1104 REF8
FLAG 1216 1136 REF16
FLAG -80 1504 0
FLAG 432 1008 COM
FLAG 192 928 COM
FLAG 192 1280 0
FLAG -608 1472 0
FLAG 16 1504 0
FLAG 16 1216 COM
FLAG 432 1408 0
FLAG 144 1424 0
FLAG -160 704 0
SYMBOL voltage -960 944 R0
WINDOW 123 0 0 Left 0
WINDOW 39 0 0 Left 0
SYMATTR InstName V1
SYMATTR Value 5V
SYMBOL diode -640 1104 R180
WINDOW 0 24 64 Left 2
WINDOW 3 24 0 Left 2
SYMATTR InstName D1
SYMBOL diode -640 944 R180
WINDOW 0 24 64 Left 2
WINDOW 3 24 0 Left 2
SYMATTR InstName D2
SYMBOL cap -784 1040 R0
SYMATTR InstName C7
SYMATTR Value 0.5pF
SYMBOL cap -784 880 R0
SYMATTR InstName C10
SYMATTR Value 0.5pF
SYMBOL ind -16 512 R270
WINDOW 0 32 56 VTop 2
WINDOW 3 5 56 VBottom 2
SYMATTR InstName L1
SYMATTR Value 1.5mH
SYMATTR SpiceLine Rser=82 Rpar=20Meg
SYMBOL cap -544 544 R0
SYMATTR InstName C_ant
SYMATTR Value 8pF
SYMBOL cap -720 544 R0
SYMATTR InstName C_hand
SYMATTR Value 0.0001pF
SYMBOL res -432 544 R0
SYMATTR InstName R_loss
SYMATTR Value 2400K
SYMBOL Comparators\\LT1711 448 672 R0
SYMATTR InstName U7
SYMBOL res 240 512 R270
WINDOW 0 32 56 VTop 2
WINDOW 3 0 56 VBottom 2
SYMATTR InstName R47
SYMATTR Value 100
SYMBOL res -976 848 R0
SYMATTR InstName R1
SYMATTR Value 1
SYMBOL cap -1072 976 R0
SYMATTR InstName C1
SYMATTR Value 10µF
SYMBOL cap -288 560 R0
SYMATTR InstName C_tune
SYMATTR Value 1pF
SYMBOL EXTRA\\74HC\\74hc393 1056 528 R0
SYMATTR InstName U1
SYMBOL voltage 608 1152 R0
WINDOW 123 0 0 Left 0
WINDOW 39 0 0 Left 0
SYMATTR InstName V_CRYSTAL_1MHz
SYMATTR Value PULSE(0 5 0 1ns 1ns 0.5m 1m)
SYMBOL EXTRA\\74HC\\74hc393 1056 864 R0
SYMATTR InstName U2
SYMBOL res 96 1088 R90
WINDOW 0 0 56 VBottom 2
WINDOW 3 32 56 VTop 2
SYMATTR InstName R2
SYMATTR Value 10K
SYMBOL cap -96 832 R0
SYMATTR InstName C2
SYMATTR Value 4.7pF
SYMBOL EXTRA\\Misc\\pot 432 1104 R0
SYMATTR InstName U3
SYMATTR Value2 T=.01
SYMBOL npn 256 976 M0
SYMATTR InstName Q1
SYMATTR Value 2N3904
SYMBOL pnp 256 1232 R180
SYMATTR InstName Q2
SYMATTR Value 2N3906
SYMBOL SBORKA\\VARICAP\\BBY65-02V -64 1216 R180
SYMATTR InstName U4
SYMBOL cap -624 1312 R0
SYMATTR InstName C3
SYMATTR Value 2.2pF
SYMBOL res 0 1248 R0
SYMATTR InstName R3
SYMATTR Value 1K
SYMBOL res 0 1376 R0
SYMATTR InstName R4
SYMATTR Value 1K
SYMBOL cap -96 1392 R0
SYMATTR InstName C4
SYMATTR Value 0.01µF
SYMBOL res 416 1248 R0
SYMATTR InstName R5
SYMATTR Value 1
SYMBOL res -176 544 R0
SYMATTR InstName R6
SYMATTR Value 100K
SYMBOL SBORKA\\VARICAP\\BBY65-02V -96 992 R0
SYMATTR InstName U5
SYMBOL res -256 1040 R0
SYMATTR InstName R7
SYMATTR Value 47K
TEXT -656 368 Left 2 !.tran 0 1.3m 0.3m 0.00001m
TEXT -664 432 Left 2 !.IC V(ANT)=1u
