Version 4
SHEET 1 3920 3748
WIRE -528 480 -528 448
WIRE -528 480 -656 480
WIRE -432 480 -528 480
WIRE -288 480 -352 480
WIRE -256 480 -288 480
WIRE -144 480 -176 480
WIRE 240 480 -144 480
WIRE -656 528 -656 480
WIRE -528 544 -528 480
WIRE -848 560 -848 480
WIRE 128 560 96 560
WIRE 240 560 240 480
WIRE 240 560 208 560
WIRE -64 608 -64 560
WIRE -144 640 -144 480
WIRE -96 640 -144 640
WIRE 96 640 96 560
WIRE 96 640 -16 640
WIRE 288 640 96 640
WIRE -848 672 -848 640
WIRE -288 672 -288 480
WIRE -96 672 -288 672
WIRE 96 672 -16 672
WIRE -656 688 -656 608
WIRE -528 688 -528 608
WIRE -80 736 -80 704
WIRE -64 736 -64 704
WIRE -64 736 -80 736
WIRE -48 736 -48 704
WIRE -48 736 -64 736
WIRE 96 752 96 672
WIRE 128 752 96 752
WIRE 240 752 240 560
WIRE 240 752 208 752
WIRE -64 784 -64 736
FLAG -848 672 0
FLAG -848 480 COM
FLAG -528 688 0
FLAG -64 784 0
FLAG -64 560 COM
FLAG 288 640 OUT
FLAG -528 448 ANT
FLAG -656 688 0
SYMBOL voltage -848 544 R0
WINDOW 123 0 0 Left 0
WINDOW 39 0 0 Left 0
SYMATTR InstName V1
SYMATTR Value 3.3V
SYMBOL ind -448 496 R270
WINDOW 0 32 56 VTop 2
WINDOW 3 5 56 VBottom 2
SYMATTR InstName L1
SYMATTR Value 2.624mH
SYMATTR SpiceLine Rser=66 Rpar=10Meg Cpar=1.216pF
SYMBOL cap -544 544 R0
SYMATTR InstName C1
SYMATTR Value 8pF
SYMBOL Comparators\\LT1711 -64 656 R0
SYMATTR InstName U7
SYMBOL res -272 496 R270
WINDOW 0 32 56 VTop 2
WINDOW 3 0 56 VBottom 2
SYMATTR InstName R_sense
SYMATTR Value 47
SYMBOL res -672 512 R0
SYMATTR InstName R_loss
SYMATTR Value 2Meg
SYMBOL res 224 736 R90
WINDOW 0 0 56 VBottom 2
WINDOW 3 32 56 VTop 2
SYMATTR InstName R2
SYMATTR Value 100
SYMBOL res 224 544 R90
WINDOW 0 0 56 VBottom 2
WINDOW 3 32 56 VTop 2
SYMATTR InstName R3
SYMATTR Value 470
TEXT -728 312 Left 2 !.tran 0 1.3m 0.3m 0.000001m
TEXT -728 352 Left 2 !.IC V(ANT)=1u
