Version 4
SHEET 1 880 1476
WIRE -4336 -1264 -4336 -1328
WIRE -4000 -1264 -4000 -1328
WIRE -3296 -1200 -3344 -1200
WIRE -3344 -1168 -3344 -1200
WIRE -4336 -1136 -4336 -1184
WIRE -4000 -1136 -4000 -1184
WIRE -3056 -1104 -3056 -1312
WIRE -3056 -1104 -3072 -1104
WIRE -3024 -1072 -3024 -1312
WIRE -3024 -1072 -3072 -1072
WIRE -3296 -1056 -3392 -1056
WIRE -2992 -1040 -2992 -1312
WIRE -2992 -1040 -3072 -1040
WIRE -2960 -1008 -2960 -1312
WIRE -2960 -1008 -3072 -1008
WIRE -4336 -976 -4336 -1024
WIRE -4336 -864 -4336 -896
WIRE -4336 -688 -4336 -736
WIRE -3296 -656 -3344 -656
WIRE -3344 -624 -3344 -656
WIRE -4336 -576 -4336 -608
WIRE -3056 -560 -3056 -768
WIRE -3056 -560 -3072 -560
WIRE -3024 -528 -3024 -768
WIRE -3024 -528 -3072 -528
WIRE -3296 -512 -3392 -512
WIRE -2992 -496 -2992 -768
WIRE -2992 -496 -3072 -496
WIRE -3792 -464 -4592 -464
WIRE -2960 -464 -2960 -768
WIRE -2960 -464 -3072 -464
WIRE -3792 -432 -3792 -464
WIRE -4080 -416 -4080 -432
WIRE -4752 -304 -4800 -304
WIRE -4592 -304 -4592 -464
WIRE -4592 -304 -4640 -304
WIRE -4512 -304 -4592 -304
WIRE -4352 -304 -4432 -304
WIRE -4208 -304 -4272 -304
WIRE -4080 -304 -4080 -336
WIRE -4080 -304 -4144 -304
WIRE -3792 -304 -4080 -304
WIRE -4080 -272 -4080 -304
WIRE -4080 -176 -4080 -192
WIRE -3792 -144 -3792 -304
WIRE -3792 -144 -4320 -144
WIRE -3648 -144 -3792 -144
WIRE -3984 -80 -4224 -80
WIRE -4320 -32 -4320 -144
WIRE -4320 -32 -4432 -32
WIRE -4128 48 -4128 -32
WIRE -4224 64 -4224 -80
WIRE -4192 64 -4224 64
WIRE -3984 80 -3984 -80
WIRE -3872 80 -3984 80
WIRE -3760 80 -3760 -32
WIRE -3760 80 -3792 80
WIRE -3632 80 -3760 80
WIRE -3456 80 -3456 -32
WIRE -3456 80 -3552 80
WIRE -3168 80 -3456 80
WIRE -4432 96 -4432 -32
WIRE -4192 96 -4432 96
WIRE -4576 128 -4688 128
WIRE -4192 128 -4464 128
WIRE -3760 128 -3760 80
WIRE -3456 128 -3456 80
WIRE -4128 208 -4128 144
WIRE -3760 224 -3760 192
WIRE -3456 224 -3456 192
FLAG -4336 -1328 COM
FLAG -4336 -1136 0
FLAG -4336 -1024 fref
FLAG -4336 -864 0
FLAG -4336 -736 fpitch
FLAG -4336 -576 0
FLAG -4000 -1136 0
FLAG -4000 -1328 vref
FLAG -4128 -32 COM
FLAG -4128 208 0
FLAG -4800 -304 fpitchdiv2
FLAG -4688 128 frefdiv2
FLAG -3760 224 0
FLAG -3760 -32 fltdiv21
FLAG -3456 224 0
FLAG -3456 -32 fltdiv22
FLAG -3344 -1168 0
FLAG -3392 -1056 fref
FLAG -3056 -1312 frefdiv2
FLAG -3024 -1312 frefdiv4
FLAG -2992 -1312 frefdiv8
FLAG -2960 -1312 frefdiv16
FLAG -3344 -624 0
FLAG -3392 -512 fpitch
FLAG -3056 -768 fpitchdiv2
FLAG -3024 -768 fpitchdiv4
FLAG -2992 -768 fpitchdiv8
FLAG -2960 -768 fpitchdiv16
FLAG -4080 -176 0
FLAG -4080 -432 COM
SYMBOL voltage -4336 -1280 R0
WINDOW 123 0 0 Left 2
WINDOW 39 0 0 Left 2
SYMATTR InstName VCC5V
SYMATTR Value 5
SYMBOL voltage -4336 -992 R0
WINDOW 123 0 0 Left 2
WINDOW 39 0 0 Left 2
SYMATTR InstName V1
SYMATTR Value PULSE(0 5 0 0.00000001 0.00000001 0.00000025 0.0000005 100000000)
SYMBOL voltage -4336 -704 R0
WINDOW 123 0 0 Left 2
WINDOW 39 0 0 Left 2
SYMATTR InstName V2
SYMATTR Value PULSE(0 5 0 0.00000001 0.00000001 0.000000251 0.000000502 100000000)
SYMBOL voltage -4000 -1280 R0
WINDOW 123 0 0 Left 2
WINDOW 39 0 0 Left 2
SYMATTR InstName VCC1
SYMATTR Value 2.5
SYMBOL res -3776 64 R90
WINDOW 0 5 56 VBottom 2
WINDOW 3 27 56 VTop 2
SYMATTR InstName R1
SYMATTR Value 20K
SYMBOL cap -3776 128 R0
SYMATTR InstName C1
SYMATTR Value 47pF
SYMBOL res -3536 64 R90
WINDOW 0 5 56 VBottom 2
WINDOW 3 27 56 VTop 2
SYMATTR InstName R3
SYMATTR Value 20K
SYMBOL cap -3472 128 R0
SYMATTR InstName C3
SYMATTR Value 100pF
SYMBOL Robertugo\\SwitchAna -4128 96 R0
SYMATTR SpiceModel HCF4016B
SYMATTR InstName U1
SYMBOL EXTRA\\74HC\\74hc04 -4704 -368 R0
SYMATTR InstName U2
SYMBOL EXTRA\\74HC\\74hc04 -4528 64 R0
SYMATTR InstName U3
SYMBOL Dig_Add\\74HC\\74hc393 -3184 -1280 R0
SYMATTR InstName U5
SYMBOL Dig_Add\\74HC\\74hc393 -3184 -736 R0
SYMATTR InstName U6
SYMBOL EXTRA\\Misc\\pot -3792 -384 R180
SYMATTR InstName U9
SYMATTR Value R=2k
SYMATTR Value2 T=.99
SYMBOL ind -4368 -288 R270
WINDOW 0 32 56 VTop 2
WINDOW 3 5 56 VBottom 2
SYMATTR InstName L1
SYMATTR Value 0.25mH
SYMBOL cap -4144 -320 R90
WINDOW 0 0 32 VBottom 2
WINDOW 3 32 32 VTop 2
SYMATTR InstName C2
SYMATTR Value 100pF
SYMBOL res -4096 -288 R0
SYMATTR InstName R2
SYMATTR Value 500
SYMBOL res -4096 -432 R0
SYMATTR InstName R4
SYMATTR Value 500
SYMBOL res -4416 -320 R90
WINDOW 0 5 56 VBottom 2
WINDOW 3 27 56 VTop 2
SYMATTR InstName R5
SYMATTR Value 100
TEXT -4360 -1424 Left 2 !.tran 0 50ms 0.5ms 0.001us
