Version 4
SHEET 1 3724 2692
WIRE 1744 -96 1744 -160
WIRE 1744 -96 1696 -96
WIRE 2032 -96 2032 -160
WIRE 2032 -96 1984 -96
WIRE 2352 -96 2352 -160
WIRE 2352 -96 2304 -96
WIRE 224 -48 192 -48
WIRE 1696 -48 1696 -96
WIRE 1744 -48 1744 -96
WIRE 1984 -48 1984 -96
WIRE 2032 -48 2032 -96
WIRE 2304 -48 2304 -96
WIRE 2352 -48 2352 -96
WIRE 1008 -32 976 -32
WIRE 1088 -32 1008 -32
WIRE 48 -16 48 -64
WIRE 1264 -16 1200 -16
WIRE 1088 0 1056 0
WIRE 1056 32 1056 0
WIRE 1696 48 1696 16
WIRE 1744 48 1744 16
WIRE 1744 48 1696 48
WIRE 1824 48 1744 48
WIRE 1984 48 1984 16
WIRE 2032 48 2032 16
WIRE 2032 48 1984 48
WIRE 2112 48 2032 48
WIRE 2304 48 2304 16
WIRE 2352 48 2352 16
WIRE 2352 48 2304 48
WIRE 2432 48 2352 48
WIRE 1696 80 1696 48
WIRE 1744 80 1744 48
WIRE 1984 80 1984 48
WIRE 2032 80 2032 48
WIRE 2304 80 2304 48
WIRE 2352 80 2352 48
WIRE 48 96 48 64
WIRE 192 112 192 -48
WIRE 1008 128 1008 -32
WIRE 1088 128 1008 128
WIRE 1264 144 1200 144
WIRE 1088 160 1056 160
WIRE 1696 176 1696 144
WIRE 1744 176 1744 144
WIRE 1744 176 1696 176
WIRE 1984 176 1984 144
WIRE 2032 176 2032 144
WIRE 2032 176 1984 176
WIRE 2304 176 2304 144
WIRE 2352 176 2352 144
WIRE 2352 176 2304 176
WIRE 1056 208 1056 160
WIRE 192 224 192 192
WIRE 1744 224 1744 176
WIRE 2032 224 2032 176
WIRE 2352 224 2352 176
WIRE 1296 496 1216 496
WIRE 1216 528 1216 496
WIRE 1216 624 1216 592
WIRE 848 656 784 656
WIRE 1136 656 1072 656
WIRE 848 720 432 720
WIRE 1216 720 1216 704
WIRE 1216 720 1072 720
WIRE 1296 720 1216 720
WIRE 1440 720 1376 720
WIRE 848 784 432 784
WIRE 1216 784 1216 720
WIRE 1216 784 1072 784
WIRE 1600 784 1600 704
WIRE 1600 784 1216 784
WIRE 1680 784 1600 784
WIRE 848 848 784 848
WIRE 1120 848 1072 848
WIRE 1600 864 1600 784
WIRE 1680 864 1680 784
WIRE 1120 880 1120 848
WIRE 1120 976 1120 944
WIRE 1600 992 1600 928
WIRE 1680 992 1680 928
WIRE 848 1104 784 1104
WIRE 1136 1104 1072 1104
WIRE 848 1168 432 1168
WIRE 1184 1168 1072 1168
WIRE 1296 1168 1184 1168
WIRE 1440 1168 1376 1168
WIRE 848 1232 432 1232
WIRE 1184 1232 1184 1168
WIRE 1184 1232 1072 1232
WIRE 1600 1232 1600 1152
WIRE 1600 1232 1184 1232
WIRE 1680 1232 1600 1232
WIRE 848 1296 784 1296
WIRE 1120 1296 1072 1296
WIRE 1600 1312 1600 1232
WIRE 1680 1312 1680 1232
WIRE 1120 1328 1120 1296
WIRE 1120 1424 1120 1392
WIRE 1600 1440 1600 1376
WIRE 1680 1440 1680 1376
WIRE 848 1776 784 1776
WIRE 1136 1776 1072 1776
WIRE 848 1840 432 1840
WIRE 1184 1840 1072 1840
WIRE 1296 1840 1184 1840
WIRE 1440 1840 1376 1840
WIRE 848 1904 432 1904
WIRE 1184 1904 1184 1840
WIRE 1184 1904 1072 1904
WIRE 1600 1904 1600 1824
WIRE 1600 1904 1184 1904
WIRE 848 1968 784 1968
WIRE 1120 1968 1072 1968
WIRE 1600 1984 1600 1904
WIRE 1120 2000 1120 1968
WIRE 1120 2096 1120 2064
WIRE 1600 2112 1600 2048
FLAG 48 96 0
FLAG 224 -48 FREF
IOPIN 224 -48 Out
FLAG 192 224 0
FLAG 1600 704 ANT1
FLAG 1600 992 0
FLAG 1680 992 0
FLAG 48 -64 COM
FLAG 1744 224 0
FLAG 1744 -160 COM
FLAG 1824 48 ANT1
FLAG 1136 656 COM
FLAG 784 656 0
FLAG 784 848 COM
FLAG 1120 976 0
FLAG 1440 720 COM
FLAG 432 784 OUT1
FLAG 1056 32 0
FLAG 1056 208 COM
FLAG 976 -32 FREF
IOPIN 976 -32 In
FLAG 1264 -16 FREF1
FLAG 1264 144 FREF2
FLAG 432 720 FREF1
FLAG 1600 1152 ANT2
FLAG 1600 1440 0
FLAG 1680 1440 0
FLAG 1136 1104 COM
FLAG 784 1104 0
FLAG 784 1296 COM
FLAG 1120 1424 0
FLAG 1440 1168 COM
FLAG 432 1232 OUT2
FLAG 432 1168 FREF
FLAG 1600 1824 ANT3
FLAG 1600 2112 0
FLAG 1136 1776 COM
FLAG 784 1776 0
FLAG 784 1968 COM
FLAG 1120 2096 0
FLAG 1440 1840 COM
FLAG 432 1904 OUT3
FLAG 432 1840 FREF1
FLAG 2032 224 0
FLAG 2032 -160 COM
FLAG 2112 48 ANT2
FLAG 2352 224 0
FLAG 2352 -160 COM
FLAG 2432 48 ANT3
FLAG 1296 496 FREF2
SYMBOL voltage 48 -32 R0
WINDOW 123 0 0 Left 2
WINDOW 39 0 0 Left 2
SYMATTR InstName V1
SYMATTR Value 5V
SYMBOL voltage 192 96 R0
WINDOW 123 0 0 Left 2
WINDOW 39 0 0 Left 2
SYMATTR InstName V2
SYMATTR Value PULSE(0 5 0 0.00000001 0.00000001 0.0000022 0.0000025)
SYMBOL cap 1584 864 R0
SYMATTR InstName Cant1
SYMATTR Value 8pF
SYMBOL cap 1664 864 R0
SYMATTR InstName Chand1
SYMATTR Value {Chand}
SYMBOL res 1392 704 R90
WINDOW 0 5 56 VBottom 2
WINDOW 3 27 56 VTop 2
SYMATTR InstName R1
SYMATTR Value 1000000
SYMBOL diode 1712 16 R180
WINDOW 0 24 64 Left 2
WINDOW 3 24 0 Left 2
SYMATTR InstName D3
SYMBOL diode 1712 144 R180
WINDOW 0 24 64 Left 2
WINDOW 3 24 0 Left 2
SYMATTR InstName D4
SYMBOL cap 1728 -48 R0
SYMATTR InstName C6
SYMATTR Value 1.5pF
SYMBOL cap 1728 80 R0
SYMATTR InstName C7
SYMATTR Value 1.5pF
SYMBOL NE555 960 752 R0
SYMATTR InstName U2
SYMBOL cap 1104 880 R0
SYMATTR InstName C1
SYMATTR Value 1nF
SYMBOL 74hc86 1136 -80 R0
SYMATTR InstName U3
SYMBOL 74hc86 1136 80 R0
SYMATTR InstName U4
SYMBOL cap 1584 1312 R0
SYMATTR InstName Cant2
SYMATTR Value 8pF
SYMBOL cap 1664 1312 R0
SYMATTR InstName Chand2
SYMATTR Value {Chand}
SYMBOL res 1392 1152 R90
WINDOW 0 5 56 VBottom 2
WINDOW 3 27 56 VTop 2
SYMATTR InstName R2
SYMATTR Value 150000
SYMBOL NE555 960 1200 R0
SYMATTR InstName U1
SYMBOL cap 1104 1328 R0
SYMATTR InstName C2
SYMATTR Value 1nF
SYMBOL cap 1584 1984 R0
SYMATTR InstName C10
SYMATTR Value 8pF
SYMBOL res 1392 1824 R90
WINDOW 0 5 56 VBottom 2
WINDOW 3 27 56 VTop 2
SYMATTR InstName R3
SYMATTR Value 200000
SYMBOL cap 1104 2000 R0
SYMATTR InstName C3
SYMATTR Value 1nF
SYMBOL diode 2000 16 R180
WINDOW 0 24 64 Left 2
WINDOW 3 24 0 Left 2
SYMATTR InstName D1
SYMBOL diode 2000 144 R180
WINDOW 0 24 64 Left 2
WINDOW 3 24 0 Left 2
SYMATTR InstName D2
SYMBOL cap 2016 -48 R0
SYMATTR InstName C4
SYMATTR Value 1.5pF
SYMBOL cap 2016 80 R0
SYMATTR InstName C5
SYMATTR Value 1.5pF
SYMBOL diode 2320 16 R180
WINDOW 0 24 64 Left 2
WINDOW 3 24 0 Left 2
SYMATTR InstName D5
SYMBOL diode 2320 144 R180
WINDOW 0 24 64 Left 2
WINDOW 3 24 0 Left 2
SYMATTR InstName D6
SYMBOL cap 2336 -48 R0
SYMATTR InstName C8
SYMATTR Value 1.5pF
SYMBOL cap 2336 80 R0
SYMATTR InstName C9
SYMATTR Value 1.5pF
SYMBOL 555 960 1872 R0
SYMATTR InstName U6
SYMBOL diode 1200 528 R0
SYMATTR InstName D7
SYMBOL res 1232 720 R180
WINDOW 0 31 76 Left 2
WINDOW 3 31 40 Left 2
SYMATTR InstName R4
SYMATTR Value 15000
TEXT 32 -304 Left 2 !.tran 0 0.000333 0.0003 0.000000001 startup
TEXT 32 -272 Left 2 !.step param Chand list 0pF 0.1pF 0.2pF 0.3pF 0.4pF 0.5pF 0.6pF 0.7pF 0.8pF 0.9pF 1pF 1.1pF 1.2pF 1.3pF 1.4pF 1.5pF\n.MEAS TRAN res1 FIND V(out) AT=1m
TEXT 328 -48 Left 2 ;Ref clock ~0.5..1.5 MHz 3.3V
TEXT 32 -368 Left 4 ;Phase Shift Theremin Sensor
TEXT 1952 -200 Left 2 ;ESD protection SP721
TEXT 328 -8 Left 2 ;Calibration: with hand FAR from antenna,\nchoose FREF so that OUT is in 1..1.5V range
TEXT 40 -208 Left 2 ;Simulate for hand C from 0 to 3pF with 0.1pF step
TEXT 840 560 Left 2 ;Linear zoom optimization
TEXT 816 1032 Left 2 ;Simple RC
